17
Properties=species:S:1:pos:R:3 gdb_79952=T pbc="F F F"
C       -0.41680000       1.49840000      -0.12240000
C       -0.07790000       0.02670000      -0.11420000
C        0.61910000      -0.70230000      -1.22140000
C        1.41370000       0.10950000      -2.18090000
C        2.42570000       0.71660000      -1.56490000
C        2.44890000       0.30940000      -0.09610000
C        2.51840000       1.43870000       0.84140000
N        2.60980000       2.32610000       1.57570000
N        1.26190000      -0.55960000       0.11660000
H        0.24700000       2.09070000      -0.75360000
H       -1.43960000       1.62310000      -0.49420000
H       -0.37650000       1.90800000       0.89060000
H       -0.81740000      -0.56790000       0.42040000
H        0.29350000      -1.69840000      -1.51090000
H        1.17630000       0.18430000      -3.23490000
H        3.14360000       1.40370000      -1.99410000
H        3.33750000      -0.30570000       0.10990000
