15
Properties=species:S:1:pos:R:3 gdb_128963=T pbc="F F F"
N        0.01330000       1.32340000       0.00940000
C        1.24480000       1.87610000       0.00050000
C        2.13650000       0.80390000      -0.01400000
C        3.54440000       0.65710000      -0.02840000
C        4.06130000      -0.61350000      -0.04030000
C        3.21660000      -1.76270000      -0.03840000
C        1.84940000      -1.65560000      -0.02460000
C        1.28700000      -0.35640000      -0.01210000
N       -0.01730000      -0.01860000       0.00240000
H       -0.86440000       1.81810000       0.02060000
H        1.38920000       2.94440000       0.00490000
H        4.19400000       1.52600000      -0.02990000
H        5.13660000      -0.75720000      -0.05150000
H        3.67740000      -2.74510000      -0.04820000
H        1.20500000      -2.52720000      -0.02310000
