20
Properties=species:S:1:pos:R:3 gdb_59099=T pbc="F F F"
C        0.09130000       1.63810000       0.09760000
C       -0.05470000       0.11440000       0.07650000
O       -1.42810000      -0.26780000       0.13130000
C        0.64760000      -0.48380000      -1.15020000
C        0.77240000      -2.03890000      -1.34260000
C        0.14870000      -2.95680000      -0.30090000
N       -0.01160000      -1.86040000      -2.58030000
C       -0.24150000      -0.52370000      -2.41650000
O       -0.93350000       0.27580000      -2.99960000
H        1.14020000       1.93610000       0.19600000
H       -0.29780000       2.06700000      -0.83240000
H       -0.47010000       2.05320000       0.93870000
H        0.38610000      -0.30760000       0.98760000
H       -1.86590000       0.14000000      -0.62720000
H        1.59890000       0.02550000      -1.32740000
H        1.80070000      -2.35370000      -1.55620000
H       -0.85800000      -2.62580000      -0.04070000
H        0.10640000      -3.98560000      -0.67480000
H        0.75950000      -2.96540000       0.60830000
H       -0.43480000      -2.53050000      -3.20680000
