19
Properties=species:S:1:pos:R:3 gdb_85145=T pbc="F F F"
O        0.46660000       1.11640000      -0.41410000
C        0.20960000      -0.11180000       0.22300000
C       -0.16070000      -0.08800000       1.74170000
C       -1.38790000      -0.93880000       1.37520000
O       -2.15250000      -1.61710000       2.00230000
C       -1.19070000      -0.68260000      -0.11780000
C       -2.27520000       0.22080000      -0.78940000
C       -2.85740000      -1.05070000      -1.45950000
C       -1.52780000      -1.78770000      -1.14680000
H        1.33500000       1.42730000      -0.13990000
H        0.99950000      -0.84720000       0.01400000
H        0.53820000      -0.50960000       2.46790000
H       -0.45570000       0.91810000       2.05920000
H       -2.92700000       0.79680000      -0.12870000
H       -1.80110000       0.89900000      -1.50220000
H       -3.68800000      -1.46580000      -0.88430000
H       -3.15630000      -0.97130000      -2.50680000
H       -0.83040000      -1.76880000      -1.98970000
H       -1.59400000      -2.80600000      -0.75650000
