21
Properties=species:S:1:pos:R:3 gdb_76717=T pbc="F F F"
C       -0.08700000       1.55420000       0.52750000
C        0.17260000       0.08160000       0.28260000
C        0.32800000      -0.51750000      -1.08310000
C        0.19990000       0.31230000      -2.34650000
N        1.04720000      -0.17130000      -3.43020000
C        2.03160000       0.57960000      -3.98960000
O        2.30430000       1.72250000      -3.68280000
N        1.46160000      -0.44680000      -0.16200000
C        2.58920000       0.44470000      -0.41270000
H        0.36360000       2.20780000      -0.22110000
H       -1.16460000       1.75010000       0.54020000
H        0.30990000       1.84940000       1.50490000
H       -0.29730000      -0.55290000       1.03540000
H       -0.03480000      -1.53860000      -1.22290000
H       -0.84990000       0.29210000      -2.66780000
H        0.47420000       1.35610000      -2.20270000
H        0.93910000      -1.12260000      -3.74510000
H        2.57190000       0.02440000      -4.78140000
H        2.37620000       1.34250000      -1.00570000
H        3.00510000       0.75600000       0.55090000
H        3.36390000      -0.11940000      -0.94150000
