15
Properties=species:S:1:pos:R:3 gdb_51107=T pbc="F F F"
O        0.11690000      -0.02370000      -0.22850000
C        0.14240000       1.16230000      -0.32590000
O        1.01120000       1.92700000       0.39030000
C        0.93380000       3.30660000       0.23230000
C        1.09900000       4.00650000      -1.06670000
C        2.13210000       4.25550000       0.04280000
C        1.52720000       5.16400000       1.07720000
O        1.89720000       6.15710000       1.63030000
C        0.30320000       4.22630000       1.28720000
H       -0.50450000       1.76470000      -0.98800000
H        1.50280000       3.41020000      -1.87900000
H        0.41190000       4.78830000      -1.37720000
H        3.17970000       4.04430000      -0.12870000
H       -0.69910000       4.61940000       1.09530000
H        0.34390000       3.79230000       2.29050000
