18
Properties=species:S:1:pos:R:3 gdb_39548=T pbc="F F F"
C       -0.00990000       1.56770000       0.02000000
C        1.33680000       2.22650000      -0.08230000
C        2.45970000       1.51900000      -0.18080000
C        2.42660000       0.02410000      -0.20990000
C        2.16230000      -0.77060000       1.06720000
C        0.63350000      -0.72280000       1.25480000
C        1.27040000      -1.68420000       0.29110000
N        1.16120000      -0.60320000      -0.80100000
C        0.07840000       0.04250000       0.05830000
H       -0.53280000       1.91030000       0.92430000
H       -0.64140000       1.88800000      -0.82110000
H        1.36140000       3.31330000      -0.09360000
H        3.42640000       2.00880000      -0.25750000
H        3.27850000      -0.38690000      -0.75900000
H        2.82420000      -1.00320000       1.89240000
H        0.17880000      -0.93550000       2.21520000
H        1.21220000      -2.75070000       0.13080000
H       -0.87520000      -0.39660000      -0.25140000
