23
Properties=species:S:1:pos:R:3 gdb_40796=T pbc="F F F"
C       -0.18530000       1.41300000      -0.18630000
C        1.24980000       1.02620000       0.08100000
C        0.17820000      -0.03400000       0.02980000
C       -0.25150000      -0.76180000       1.28740000
C       -1.68560000      -1.30620000       1.18140000
C       -2.15070000      -1.93200000       2.50460000
C       -1.09060000      -2.80890000       3.11920000
C        0.18180000      -2.80670000       2.72370000
C        0.71640000      -1.90670000       1.63980000
H       -0.72580000       1.92250000       0.60520000
H       -0.45390000       1.73850000      -1.18530000
H        1.96150000       1.08790000      -0.73490000
H        1.66620000       1.27630000       1.05170000
H        0.17590000      -0.65840000      -0.86200000
H       -0.22960000      -0.04030000       2.11820000
H       -2.37010000      -0.50740000       0.87570000
H       -1.71680000      -2.06740000       0.38990000
H       -2.43200000      -1.14210000       3.21780000
H       -3.06720000      -2.51450000       2.34440000
H       -1.40360000      -3.47020000       3.92420000
H        0.89360000      -3.48060000       3.19560000
H        0.92830000      -2.50140000       0.73720000
H        1.68620000      -1.49140000       1.94270000
