15
Properties=species:S:1:pos:R:3 gdb_87360=T pbc="F F F"
O       -0.03700000       1.21220000      -0.03360000
C       -0.08610000      -0.15600000       0.14040000
C       -0.73220000      -0.77990000       1.33220000
C       -1.43970000      -0.86520000      -0.01720000
O       -2.48820000       0.04040000      -0.28710000
C       -3.67760000      -0.16810000       0.34880000
O       -4.61130000       0.55020000       0.18540000
C       -1.47880000      -2.14840000      -0.75930000
O       -0.68790000      -3.04140000      -0.57590000
H       -0.93940000       1.53840000      -0.14810000
H        0.76170000      -0.66860000      -0.30230000
H       -0.33480000      -1.71870000       1.70240000
H       -1.17600000      -0.11460000       2.06470000
H       -3.65500000      -1.05660000       1.00440000
H       -2.28730000      -2.21320000      -1.51960000
