16
Properties=species:S:1:pos:R:3 gdb_65000=T pbc="F F F"
O        0.00790000       1.37880000      -0.17040000
C        0.03400000      -0.00380000      -0.03730000
C       -0.37750000      -0.62800000       1.29860000
C       -1.30390000      -0.67350000       0.11940000
C        1.08510000      -0.75410000      -0.78050000
O        1.13050000      -1.94650000      -0.92810000
O        2.04950000       0.11600000      -1.23650000
C        3.11600000      -0.40360000      -1.93060000
N        4.02280000       0.38980000      -2.28710000
H        0.91390000       1.70260000      -0.10880000
H        0.11630000      -1.54320000       1.60290000
H       -0.58870000       0.08910000       2.08300000
H       -2.15120000       0.00190000       0.11230000
H       -1.44170000      -1.62000000      -0.38870000
H        3.03220000      -1.47870000      -2.08900000
H        4.74640000      -0.11710000      -2.79500000
