17
Properties=species:S:1:pos:R:3 gdb_15348=T pbc="F F F"
C       -0.10420000       1.44930000      -0.49470000
C        0.01930000       0.15470000       0.31930000
C       -1.31220000      -0.54490000       0.45590000
O       -1.82510000      -1.23100000      -0.69720000
C       -1.52610000      -2.00100000       0.46210000
C       -0.39770000      -3.01560000       0.34810000
C       -0.85500000      -4.28230000      -0.22420000
N       -1.22530000      -5.28390000      -0.66480000
H        0.86320000       1.95190000      -0.58030000
H       -0.47010000       1.23590000      -1.50310000
H       -0.80460000       2.14710000      -0.02350000
H        0.74990000      -0.50760000      -0.15460000
H        0.39600000       0.37890000       1.32570000
H       -2.07150000       0.04850000       0.97170000
H       -2.40340000      -2.38340000       0.98570000
H        0.40870000      -2.62060000      -0.27440000
H        0.01940000      -3.21630000       1.34260000
