17
Properties=species:S:1:pos:R:3 gdb_37776=T pbc="F F F"
O       -0.10260000       1.54650000       0.01140000
C        1.33800000       1.23090000      -0.00440000
C        1.07470000       0.17960000       1.12120000
C        2.01290000      -0.91320000       1.50030000
C        2.70810000      -1.72940000       0.69210000
C        2.69410000      -1.72150000      -0.75870000
C        1.98330000      -0.89690000      -1.54450000
C        1.05250000       0.19140000      -1.13550000
C       -0.01140000       0.07450000       0.00280000
H        2.04660000       2.05900000      -0.00700000
H        0.65760000       0.67190000       2.00100000
H        2.13460000      -1.04910000       2.57190000
H        3.34860000      -2.47430000       1.15720000
H        3.32560000      -2.46110000      -1.24410000
H        2.08440000      -1.02120000      -2.61960000
H        0.61820000       0.69290000      -2.00170000
H       -0.93830000      -0.49880000       0.00890000
