18
Properties=species:S:1:pos:R:3 gdb_122618=T pbc="F F F"
O       -0.15920000       1.32570000       0.31890000
C        0.03340000      -0.02310000      -0.09920000
C       -1.34120000      -0.65840000      -0.20730000
N       -2.12730000       0.04950000      -1.21890000
C       -3.49620000      -0.40640000      -1.30400000
C       -4.31550000       0.12330000      -2.49490000
O       -4.43540000      -1.23420000      -3.03440000
C       -3.66480000      -1.75480000      -2.02810000
O       -3.30760000      -2.88040000      -1.88930000
H        0.67400000       1.79580000       0.22770000
H        0.53170000      -0.06600000      -1.07800000
H        0.64220000      -0.58290000       0.62600000
H       -1.24220000      -1.70770000      -0.50130000
H       -1.82040000      -0.63910000       0.78860000
H       -2.10530000       1.03840000      -0.98580000
H       -4.04990000      -0.39080000      -0.34860000
H       -5.29960000       0.53960000      -2.27310000
H       -3.75570000       0.76170000      -3.18050000
