18
Properties=species:S:1:pos:R:3 gdb_81294=T pbc="F F F"
C       -0.17830000       1.62040000      -0.01030000
C        0.03470000       0.11600000      -0.01390000
C        0.83980000      -0.61600000      -1.11550000
C        2.09680000       0.13950000      -1.50890000
O        2.81840000       0.59800000      -0.34690000
C        2.37210000       0.22410000       0.88960000
N        2.96110000       0.54800000       1.95970000
C        1.09860000      -0.58000000       0.87540000
O        1.24490000      -1.61640000      -0.14080000
H        0.75630000       2.17420000      -0.13290000
H       -0.85640000       1.91500000      -0.81840000
H       -0.63280000       1.94040000       0.93260000
H       -0.91160000      -0.41370000       0.12330000
H        0.32640000      -1.03830000      -1.98400000
H        2.76540000      -0.51810000      -2.07470000
H        1.86560000       1.01960000      -2.11970000
H        3.79440000       1.10450000       1.75410000
H        0.85190000      -0.96000000       1.86560000
