15
Properties=species:S:1:pos:R:3 gdb_45384=T pbc="F F F"
N       -0.01610000       1.25300000      -0.48570000
C        0.02060000       0.08200000      -0.05580000
O        1.02830000      -0.62620000       0.58580000
C        0.25900000      -1.85990000       0.58700000
C       -0.58310000      -2.06160000       1.85390000
N       -1.62630000      -1.13740000       1.32190000
C       -0.95880000      -1.09220000      -0.02380000
C       -1.72840000      -1.45340000      -1.17790000
C       -2.39320000      -1.77120000      -2.12770000
H        0.85340000       1.75440000      -0.29660000
H        0.80490000      -2.68130000       0.12770000
H       -0.91370000      -3.10180000       1.95840000
H       -0.12570000      -1.72910000       2.79000000
H       -2.55060000      -1.54890000       1.26870000
H       -2.97320000      -2.03680000      -2.97720000
