17
Properties=species:S:1:pos:R:3 gdb_61336=T pbc="F F F"
C       -0.09080000       1.63230000       0.59410000
C        0.02720000       0.24130000      -0.05250000
C        0.78730000      -0.77770000       0.82050000
C        2.17770000      -0.41770000       1.04320000
C        3.32940000      -0.08890000       1.20490000
C        4.70760000       0.26460000       1.42280000
O        5.22340000       1.28680000       1.03100000
C       -1.35000000      -0.28270000      -0.41190000
O       -1.79440000      -1.34740000      -0.06660000
H        0.90210000       2.05030000       0.77530000
H       -0.63720000       2.32320000      -0.05520000
H       -0.61970000       1.57600000       1.55140000
H        0.56210000       0.36200000      -1.00680000
H        0.27720000      -0.88240000       1.78660000
H        0.73050000      -1.76920000       0.35700000
H        5.28470000      -0.49040000       1.99470000
H       -1.95100000       0.41460000      -1.03940000
