19
Properties=species:S:1:pos:R:3 gdb_44944=T pbc="F F F"
N       -0.05410000       1.28680000      -0.14020000
C       -0.02360000       0.02720000      -0.06440000
O        1.11450000      -0.73830000      -0.02140000
C        0.72840000      -2.13770000       0.09770000
C       -0.64040000      -2.17400000      -0.59100000
C       -1.22370000      -0.90980000       0.04890000
N       -1.55210000      -1.21950000       1.45160000
C       -0.36340000      -1.49820000       2.27670000
C        0.57330000      -2.50170000       1.57990000
H        0.89430000       1.66890000      -0.16260000
H        1.50810000      -2.72190000      -0.39380000
H       -0.53640000      -2.06340000      -1.67400000
H       -1.22270000      -3.06700000      -0.36160000
H       -2.10370000      -0.49950000      -0.44440000
H       -2.05150000      -0.43270000       1.85370000
H        0.21550000      -0.58580000       2.49130000
H       -0.69740000      -1.89880000       3.23890000
H        0.17360000      -3.52000000       1.64390000
H        1.54540000      -2.49520000       2.08200000
