16
Properties=species:S:1:pos:R:3 gdb_67496=T pbc="F F F"
O       -0.07290000       1.35860000      -0.00500000
C        0.01900000      -0.01230000      -0.05850000
C        0.63250000      -0.73610000      -1.29460000
C        0.89320000      -2.20430000      -1.11080000
C       -0.52480000      -1.72620000      -1.25630000
C       -1.11760000      -0.99160000      -0.02230000
C       -0.20120000      -0.85450000       1.19680000
C        0.64050000      -1.83490000       1.83050000
N        1.31030000      -2.58810000       2.40030000
H        0.79270000       1.71510000       0.23030000
H        0.99260000      -0.16300000      -2.13870000
H        1.27770000      -2.68840000      -2.00460000
H        1.28480000      -2.62270000      -0.19440000
H       -1.15920000      -2.03530000      -2.07600000
H       -2.17710000      -0.80480000       0.09570000
H       -0.69170000      -0.22770000       1.93960000
