11
Properties=species:S:1:pos:R:3 gdb_129157=T pbc="F F F"
N        0.51560000       1.20230000       1.50980000
C        0.55030000       0.36990000       0.56540000
N        1.72240000      -0.05150000      -0.16190000
N        1.42700000      -0.87370000      -1.02390000
O       -0.00770000      -1.15320000      -1.02910000
N       -2.70940000      -3.41010000      -3.00210000
N       -2.76870000      -2.69020000      -2.17480000
C       -0.57490000      -0.38880000      -0.04580000
N       -1.79500000      -0.34470000       0.26730000
H        1.45420000       1.55840000       1.70810000
H       -2.34950000      -0.97180000      -0.31920000
