13
Properties=species:S:1:pos:R:3 gdb_28663=T pbc="F F F"
O        0.06670000       1.34360000      -0.06420000
C        0.06010000       0.00140000      -0.04190000
C       -0.00310000      -0.70670000      -1.25510000
N       -0.01180000      -2.02670000      -1.27840000
C        0.04230000      -2.67070000      -0.09220000
C        0.10480000      -1.94820000       1.10410000
N        0.11370000      -0.61500000       1.13030000
C        0.03460000      -4.09620000      -0.08230000
C        0.02990000      -5.29880000      -0.03720000
H        0.11330000       1.63650000       0.85720000
H       -0.04610000      -0.17410000      -2.20060000
H        0.14840000      -2.46400000       2.05850000
H        0.02500000      -6.36060000      -0.01280000
