23
Properties=species:S:1:pos:R:3 gdb_117668=T pbc="F F F"
C        0.14630000       1.61510000       0.20130000
C        0.02770000       0.09560000       0.05160000
O        0.65020000      -0.43440000       1.23610000
C       -1.44840000      -0.35610000      -0.00620000
C       -2.29100000       0.03410000       1.20230000
O       -3.54220000      -0.63270000       1.07620000
C        0.74360000      -0.45570000      -1.18130000
C        1.01650000       0.34200000      -2.43310000
C        2.15660000      -0.07750000      -1.54060000
H        1.18690000       1.94070000       0.12700000
H       -0.44240000       2.13760000      -0.55690000
H       -0.21600000       1.91500000       1.18710000
H        0.77350000      -1.38030000       1.10270000
H       -1.91440000       0.02920000      -0.92050000
H       -1.47520000      -1.45110000      -0.08250000
H       -1.76390000      -0.26420000       2.11920000
H       -2.43340000       1.12490000       1.23920000
H       -4.07650000      -0.40750000       1.84330000
H        0.49310000      -1.50070000      -1.35950000
H        0.89320000      -0.15260000      -3.39030000
H        0.74840000       1.39220000      -2.44220000
H        2.64790000       0.68710000      -0.95020000
H        2.82160000      -0.86300000      -1.88260000
