23
Properties=species:S:1:pos:R:3 gdb_104054=T pbc="F F F"
C       -0.26010000       1.50050000       0.04880000
C       -0.02450000      -0.01470000       0.08870000
C        0.81420000      -0.50020000       1.27650000
C        2.20490000       0.14050000       1.29750000
C        0.11760000      -0.41880000       2.68620000
C        0.27530000      -1.94270000       2.84860000
O       -0.88300000      -2.67440000       2.38750000
C       -0.26050000      -2.93850000       1.10840000
C        0.94930000      -2.05770000       1.45290000
H        0.66740000       2.05790000      -0.11140000
H       -0.94460000       1.76290000      -0.76370000
H       -0.70610000       1.85760000       0.98370000
H       -1.00040000      -0.51220000       0.11490000
H        0.45860000      -0.33440000      -0.84530000
H        2.14710000       1.22180000       1.45630000
H        2.81600000      -0.27580000       2.10590000
H        2.73560000      -0.03730000       0.35440000
H        0.66950000       0.17970000       3.41700000
H       -0.92840000      -0.10250000       2.68370000
H        0.67310000      -2.34320000       3.78510000
H       -0.00790000      -4.00240000       1.00400000
H       -0.89480000      -2.64610000       0.26410000
H        1.93910000      -2.47770000       1.27210000
