16
Properties=species:S:1:pos:R:3 gdb_123772=T pbc="F F F"
C        0.09800000       1.59960000       0.18380000
C        1.30750000       0.73420000      -0.12880000
C       -0.02940000       0.11510000       0.10610000
C       -0.51280000      -0.93810000       1.15170000
C       -1.26370000      -1.56190000      -0.02650000
C       -2.05040000      -2.37750000      -0.81020000
N       -2.01120000      -1.86400000      -2.08040000
N       -1.25520000      -0.78640000      -2.13750000
N       -0.81700000      -0.62890000      -0.88120000
H        0.03000000       2.06090000       1.16310000
H       -0.33140000       2.18060000      -0.62460000
H        1.68410000       0.73860000      -1.14550000
H        2.06440000       0.60530000       0.63740000
H        0.28080000      -1.55310000       1.58100000
H       -1.14160000      -0.53540000       1.94860000
H       -2.62360000      -3.26020000      -0.58340000
