13
Properties=species:S:1:pos:R:3 gdb_123977=T pbc="F F F"
C        0.00540000       1.53640000      -0.05200000
N        1.38830000       2.00450000       0.11490000
C        2.35120000       1.21470000       0.25480000
O        2.33940000      -0.18590000       0.28300000
C        1.09610000      -0.66600000       0.13410000
C       -0.05020000       0.03820000      -0.02750000
C       -1.01050000      -1.00180000      -0.12830000
N       -0.47690000      -2.19910000      -0.03490000
O        0.91180000      -1.97630000       0.13820000
H       -0.59650000       1.99390000       0.74370000
H       -0.37450000       1.95720000      -0.99190000
H        3.37450000       1.55300000       0.37850000
H       -2.08080000      -0.93070000      -0.26670000
