18
Properties=species:S:1:pos:R:3 gdb_76953=T pbc="F F F"
C       -0.34220000       1.40690000      -0.21000000
N       -0.04310000      -0.01480000      -0.03650000
C        1.29430000      -0.55900000      -0.37860000
C        2.43610000       0.30600000      -0.77050000
O        2.66680000       1.40480000      -0.31430000
C        0.77890000      -0.45260000       1.03510000
C        1.37810000       0.31670000       2.21310000
O        1.07910000      -0.79230000       3.09260000
C        0.45710000      -1.55690000       2.03870000
H        0.49570000       2.07490000       0.01170000
H       -0.66030000       1.56930000      -1.24340000
H       -1.18410000       1.64840000       0.44570000
H        1.25670000      -1.52180000      -0.88440000
H        3.10350000      -0.14130000      -1.53930000
H        2.44850000       0.53720000       2.16240000
H        0.83750000       1.22850000       2.49630000
H       -0.61580000      -1.71330000       2.20750000
H        0.94900000      -2.52430000       1.88080000
