20
Properties=species:S:1:pos:R:3 gdb_77309=T pbc="F F F"
C       -0.03870000       1.59580000      -0.01800000
C        0.05600000       0.06790000       0.01570000
C        0.84730000      -0.51820000      -1.19640000
C        1.54020000      -1.80370000      -0.66050000
C        1.59500000      -1.53370000       0.82130000
C        0.80150000      -0.53040000       1.20120000
C        0.56280000      -0.05200000       2.59910000
C        0.02780000      -0.72630000      -2.38500000
N       -0.63170000      -0.88960000      -3.32060000
H        0.95590000       2.05420000       0.02150000
H       -0.53110000       1.93050000      -0.93640000
H       -0.62010000       1.97720000       0.82650000
H       -0.96770000      -0.33550000       0.00690000
H        1.62980000       0.20490000      -1.45610000
H        0.94510000      -2.69920000      -0.88320000
H        2.52100000      -1.95670000      -1.12180000
H        2.18650000      -2.14230000       1.49700000
H        1.14210000      -0.63170000       3.32220000
H        0.83180000       1.00440000       2.71660000
H       -0.49810000      -0.13500000       2.86910000
