23
Properties=species:S:1:pos:R:3 gdb_59167=T pbc="F F F"
C       -0.23750000       1.42720000       0.12230000
C        0.07610000      -0.05100000      -0.14950000
C        0.97460000      -0.22290000      -1.38220000
C        0.72860000      -0.68000000       1.07360000
C        0.02780000      -1.20210000       2.29460000
C       -1.27040000      -1.93460000       1.93270000
C       -0.42200000      -2.93710000       1.07280000
O       -0.69550000      -3.08800000      -0.30690000
C        0.84240000      -2.15060000       1.38760000
H        0.68030000       1.99300000       0.32480000
H       -0.72870000       1.89230000      -0.73900000
H       -0.89510000       1.54220000       0.99050000
H       -0.86120000      -0.57320000      -0.35970000
H        1.95550000       0.24310000      -1.22670000
H        1.12900000      -1.28370000      -1.59680000
H        0.52380000       0.24240000      -2.26550000
H        1.65500000      -0.16940000       1.34320000
H        0.28010000      -0.86390000       3.29230000
H       -1.74980000      -2.42120000       2.78550000
H       -2.02300000      -1.35370000       1.39120000
H       -0.39270000      -3.91810000       1.56580000
H       -1.49000000      -3.62340000      -0.40090000
H        1.80610000      -2.61000000       1.57420000
