15
Properties=species:S:1:pos:R:3 gdb_11762=T pbc="F F F"
N        0.01990000      -1.16740000      -0.01520000
C        0.01100000      -0.01110000      -0.00900000
C        0.00950000       1.43340000       0.01010000
C       -0.30170000       2.26230000       1.31420000
C        0.36440000       3.39510000       0.46100000
C        1.33590000       2.28210000      -0.06070000
C       -0.62230000       3.47430000      -0.71310000
C       -0.85940000       2.19710000      -1.01390000
H       -1.35370000       2.37560000       1.57970000
H        0.29640000       1.94500000       2.17260000
H        0.72860000       4.31750000       0.90810000
H        2.08230000       1.96660000       0.67320000
H        1.77780000       2.41350000      -1.04940000
H       -1.01290000       4.37410000      -1.16530000
H       -1.48470000       1.73960000      -1.76540000
