19
Properties=species:S:1:pos:R:3 gdb_88347=T pbc="F F F"
C        0.22790000       1.54180000      -0.37710000
C        0.06790000       0.06670000      -0.07630000
C        1.25890000      -0.86380000      -0.04740000
C        0.50500000      -0.56670000       1.22330000
C        1.16400000       0.24470000       2.34540000
C        0.15760000       0.95210000       3.14860000
C       -0.68310000       1.52740000       3.78470000
C        2.00810000      -0.61440000       3.18600000
C        2.69850000      -1.33300000       3.85610000
H        1.19220000       1.93120000      -0.03680000
H        0.17400000       1.72000000      -1.45640000
H       -0.55790000       2.13460000       0.10240000
H       -0.84480000      -0.35950000      -0.48520000
H        1.17670000      -1.85410000      -0.48130000
H        2.24130000      -0.41380000      -0.15950000
H       -0.13230000      -1.35600000       1.60870000
H        1.81620000       0.99950000       1.88560000
H       -1.41930000       2.03690000       4.35570000
H        3.30880000      -1.96210000       4.45540000
