20
Properties=species:S:1:pos:R:3 gdb_86269=T pbc="F F F"
C       -0.87660000       1.17330000      -0.05550000
C        0.06140000      -0.02060000      -0.13190000
C        1.44330000       0.12670000      -0.82420000
C        2.03620000      -0.84010000       0.22630000
O        3.33420000      -0.66460000       0.70860000
C        0.80180000      -0.52480000       1.16820000
C        1.11650000       0.56140000       2.20470000
C        0.19540000      -1.68120000       1.81280000
N       -0.29180000      -2.61010000       2.30120000
H       -0.38450000       2.05700000       0.36220000
H       -1.23330000       1.43750000      -1.05660000
H       -1.75420000       0.95100000       0.56050000
H       -0.47030000      -0.87220000      -0.56630000
H        1.52650000      -0.15530000      -1.87530000
H        1.84540000       1.13960000      -0.70420000
H        1.97870000      -1.87680000      -0.11300000
H        3.47590000       0.27080000       0.88740000
H        1.53830000       1.45270000       1.73010000
H        0.21490000       0.86620000       2.74160000
H        1.83950000       0.18650000       2.93370000
