20
Properties=species:S:1:pos:R:3 gdb_30337=T pbc="F F F"
C       -0.07330000       1.56040000       0.02360000
C        0.02930000       0.03860000       0.02830000
C        0.76890000      -0.55830000      -1.19750000
C        1.47810000      -1.83940000      -0.68050000
C        1.64030000      -1.53980000       0.77980000
C        2.26720000      -1.99200000       1.91910000
C        1.80910000      -1.16970000       2.99090000
C        0.91770000      -0.25080000       2.47410000
N        0.83730000      -0.48340000       1.12640000
H        0.92160000       2.01460000      -0.01740000
H       -0.64470000       1.89500000      -0.84780000
H       -0.58420000       1.93020000       0.91780000
H       -0.98360000      -0.38570000       0.09560000
H        0.08790000      -0.74940000      -2.03010000
H        1.51850000       0.16340000      -1.53950000
H        0.85100000      -2.72680000      -0.84080000
H        2.42410000      -2.02300000      -1.19820000
H        2.97330000      -2.80540000       1.98520000
H        2.11200000      -1.23560000       4.02530000
H        0.36460000       0.54370000       2.94820000
