14
Properties=species:S:1:pos:R:3 gdb_15282=T pbc="F F F"
C        0.06820000      -1.16980000      -0.32750000
C        0.01680000      -0.00290000      -0.04670000
C       -0.01010000       1.41260000       0.30320000
C        1.36950000       2.04290000       0.20640000
N        1.75560000       2.58650000      -1.08960000
C        1.55850000       3.51980000       0.03870000
C        0.43600000       4.42280000      -0.05340000
N       -0.46310000       5.14860000      -0.09170000
H        0.09580000      -2.20010000      -0.58330000
H       -0.69460000       1.95530000      -0.35750000
H       -0.39000000       1.53710000       1.32530000
H        2.13530000       1.54670000       0.79930000
H        2.74890000       2.46690000      -1.26850000
H        2.43270000       3.96000000       0.51080000
