17
Properties=species:S:1:pos:R:3 gdb_85616=T pbc="F F F"
C       -0.96420000       1.40080000       0.35650000
C        0.11180000       0.39510000      -0.04640000
O        0.91670000       1.04290000      -1.05200000
C        1.77280000       0.23490000      -1.75030000
O        1.52780000      -0.22360000      -2.82400000
O        2.95620000       0.04060000      -1.14580000
C        3.17560000       0.62040000       0.15590000
C        2.26470000       0.07490000       1.22870000
C        0.94330000      -0.04580000       1.12750000
H       -0.50520000       2.29360000       0.78970000
H       -1.54810000       1.69200000      -0.51950000
H       -1.63630000       0.95890000       1.09750000
H       -0.37430000      -0.47830000      -0.50720000
H        4.21300000       0.36530000       0.37910000
H        3.10130000       1.71040000       0.08140000
H        2.75460000      -0.25460000       2.14050000
H        0.38030000      -0.48790000       1.94670000
