22
Properties=species:S:1:pos:R:3 gdb_61259=T pbc="F F F"
C       -0.14150000       1.52770000       0.06150000
C        0.01100000       0.00580000      -0.04170000
C        0.79150000      -0.40210000      -1.31630000
C        0.12470000      -0.00090000      -2.55280000
N       -0.42040000       0.32190000      -3.51970000
C        0.69840000      -0.58070000       1.18940000
C       -0.02190000      -0.49040000       2.56570000
C        0.50130000      -1.91510000       2.89050000
C        0.75880000      -2.12610000       1.37440000
H        0.83790000       2.01520000       0.13660000
H       -0.65510000       1.93690000      -0.81320000
H       -0.71820000       1.80030000       0.94990000
H       -0.99000000      -0.44060000      -0.11530000
H        1.79240000       0.04740000      -1.30000000
H        0.93320000      -1.48820000      -1.33970000
H        1.70870000      -0.15850000       1.27480000
H        0.25810000       0.32480000       3.23670000
H       -1.11010000      -0.48000000       2.44190000
H        1.43520000      -1.88400000       3.45860000
H       -0.18330000      -2.60520000       3.38830000
H       -0.09070000      -2.61800000       0.88740000
H        1.67470000      -2.64420000       1.07920000
