13
Properties=species:S:1:pos:R:3 gdb_128258=T pbc="F F F"
C       -0.04840000       1.44640000       0.09510000
N       -0.05430000      -0.00220000      -0.03210000
C       -1.17050000      -0.74260000      -0.00150000
N       -1.26290000      -2.05210000       0.02420000
C       -2.62020000      -2.21360000       0.01060000
N       -3.34520000      -1.11900000      -0.01670000
O       -2.35800000      -0.11280000      -0.02110000
C       -3.24860000      -3.49750000       0.02560000
N       -3.74640000      -4.53980000       0.03830000
H        0.92880000       1.81780000      -0.21650000
H       -0.80850000       1.87860000      -0.55910000
H       -0.24370000       1.77630000       1.12250000
H        0.80100000      -0.51700000       0.09810000
