19
Properties=species:S:1:pos:R:3 gdb_38901=T pbc="F F F"
C        0.18840000       1.62900000       0.09320000
C        1.37380000       0.68420000      -0.02380000
O        2.27760000       0.47070000       1.02090000
C        1.77010000       0.01010000       2.25680000
C        1.36710000       1.08680000       3.30780000
C       -0.07520000       0.50190000       3.36060000
C        0.31930000      -0.57830000       2.31000000
O       -0.44200000      -0.63240000       1.12070000
C       -0.00970000       0.12310000       0.02700000
H        0.02290000       2.12300000       1.04270000
H       -0.08440000       2.22320000      -0.77280000
H        1.91270000       0.66060000      -0.96520000
H        2.51540000      -0.69720000       2.63090000
H        1.92870000       1.03280000       4.24300000
H        1.44100000       2.10590000       2.92350000
H       -0.38080000       0.09630000       4.32760000
H       -0.86130000       1.17230000       3.00780000
H        0.30170000      -1.59490000       2.71220000
H       -0.43810000      -0.29290000      -0.87900000
