18
Properties=species:S:1:pos:R:3 gdb_34216=T pbc="F F F"
N        0.07820000      -1.09800000      -0.06660000
C        0.02790000       0.05790000      -0.02160000
C       -0.04490000       1.48060000       0.04280000
C       -1.08400000       2.22100000       0.89070000
C       -0.62880000       3.65180000       0.52580000
C        0.88500000       3.59400000       0.84380000
C        1.20720000       2.36590000      -0.00060000
C        0.25550000       2.37020000      -1.17030000
C       -0.63210000       3.60090000      -1.02120000
H       -2.10900000       2.00330000       0.57720000
H       -0.98660000       1.99810000       1.95710000
H       -1.19020000       4.46370000       0.98550000
H        1.42200000       4.48510000       0.50310000
H        1.09080000       3.44720000       1.90840000
H        2.19060000       1.92060000      -0.06120000
H        0.51340000       1.92810000      -2.12280000
H       -1.63300000       3.45980000      -1.44010000
H       -0.18590000       4.49240000      -1.47370000
