21
Properties=species:S:1:pos:R:3 gdb_114834=T pbc="F F F"
C        0.01390000       1.59260000       0.00470000
C       -0.13090000       0.06990000      -0.06700000
C        0.65810000      -0.54270000      -1.21700000
O        2.07060000      -0.20520000      -1.12080000
C        2.78270000      -1.45000000      -1.15600000
C        2.50520000      -2.17900000       0.16390000
O        1.11910000      -2.56450000       0.02800000
C        0.70630000      -2.08210000      -1.26000000
C        1.95290000      -2.30140000      -2.12900000
H        1.06360000       1.87140000       0.12820000
H       -0.35380000       2.07180000      -0.90980000
H       -0.55270000       2.00180000       0.84660000
H        0.19420000      -0.39300000       0.86960000
H       -1.18670000      -0.20140000      -0.20110000
H        0.27530000      -0.14960000      -2.17230000
H        3.83030000      -1.25710000      -1.38520000
H        3.12660000      -3.07290000       0.30610000
H        2.62790000      -1.51020000       1.02210000
H       -0.22390000      -2.57650000      -1.53910000
H        1.89120000      -1.86290000      -3.12630000
H        2.25350000      -3.34940000      -2.18280000
