19
Properties=species:S:1:pos:R:3 gdb_109595=T pbc="F F F"
O       -0.08830000       1.49190000      -0.02350000
C        0.00600000       0.10380000       0.22940000
C       -1.37210000      -0.55660000       0.12310000
C       -1.95610000      -0.55650000      -1.33310000
O       -1.29670000       0.22920000      -2.29910000
C       -1.66870000      -2.08650000      -1.44120000
O       -0.48220000      -2.31500000      -2.17600000
C       -1.39590000      -2.10940000       0.09780000
O       -0.16140000      -2.71550000       0.45430000
H       -0.40920000       1.56190000      -0.93320000
H        0.72080000      -0.38080000      -0.45110000
H        0.40210000      -0.01550000       1.24210000
H       -2.02930000      -0.10560000       0.87070000
H       -3.02200000      -0.31450000      -1.36350000
H       -0.60610000      -0.35050000      -2.65940000
H       -2.47080000      -2.72270000      -1.83010000
H        0.18100000      -2.59040000      -1.52210000
H       -2.22390000      -2.53560000       0.67290000
H       -0.31650000      -3.64610000       0.64590000
