20
Properties=species:S:1:pos:R:3 gdb_74532=T pbc="F F F"
C       -0.22790000       1.55110000       0.05330000
C        0.00600000       0.07410000      -0.01110000
C        0.07370000      -0.68910000      -1.11860000
C        0.17070000      -2.12530000      -0.76290000
C        1.27880000      -3.19100000      -0.86760000
C        1.30420000      -3.24600000       0.70590000
C        0.18510000      -2.18600000       0.73100000
C        0.13950000      -0.76690000       1.26770000
N       -0.95540000      -2.74610000      -0.01340000
H        0.55900000       2.05240000       0.63150000
H       -0.25610000       1.99790000      -0.94410000
H       -1.17620000       1.78530000       0.55450000
H        0.01890000      -0.30420000      -2.13170000
H        0.99830000      -4.11010000      -1.38690000
H        2.20850000      -2.80310000      -1.28870000
H        1.05640000      -4.20340000       1.17060000
H        2.24560000      -2.87480000       1.11830000
H        1.06200000      -0.51260000       1.80710000
H       -0.68330000      -0.57700000       1.97000000
H       -1.71750000      -2.07080000       0.00290000
