20
Properties=species:S:1:pos:R:3 gdb_58406=T pbc="F F F"
C        0.12140000       1.49530000      -0.27500000
C        0.03220000      -0.02720000      -0.11370000
C       -1.43750000      -0.47440000      -0.05520000
C        0.81110000      -0.75350000      -1.25770000
N        2.18310000      -0.30750000      -1.40250000
C        2.56440000       0.53880000      -2.39880000
O        1.80610000       1.15210000      -3.12090000
C        0.82610000      -2.25540000      -1.02530000
O        1.83030000      -2.87980000      -0.78450000
H        1.15610000       1.84210000      -0.24830000
H       -0.31270000       1.81670000      -1.22660000
H       -0.42280000       1.98760000       0.53750000
H        0.51980000      -0.30200000       0.83190000
H       -1.93940000      -0.29850000      -1.01390000
H       -1.55520000      -1.53160000       0.19830000
H       -1.97290000       0.10200000       0.70500000
H        0.28540000      -0.54750000      -2.20000000
H        2.87680000      -0.92900000      -1.00810000
H        3.66620000       0.62380000      -2.46790000
H       -0.15980000      -2.75760000      -1.06950000
