25
Properties=species:S:1:pos:R:3 gdb_93890=T pbc="F F F"
C       -0.41640000       1.49730000       0.03180000
C        0.01830000       0.02360000      -0.00330000
C        0.77400000      -0.32880000      -1.30580000
C        2.28350000      -0.07420000      -1.22520000
C        2.94150000      -0.97810000      -0.16910000
C        4.44350000      -0.70170000      -0.02800000
C        2.22800000      -0.88470000       1.17290000
C        1.93930000       0.45810000       1.79450000
C        0.80180000      -0.38250000       1.25380000
H        0.43910000       2.17590000      -0.05070000
H       -1.09740000       1.72070000      -0.79670000
H       -0.93270000       1.73410000       0.96780000
H       -0.90130000      -0.57430000      -0.00040000
H        0.62250000      -1.39270000      -1.52990000
H        0.33620000       0.22810000      -2.14260000
H        2.74800000      -0.26630000      -2.19940000
H        2.48570000       0.98170000      -1.00060000
H        2.82260000      -2.01340000      -0.52350000
H        4.62060000       0.32050000       0.32430000
H        4.90770000      -1.38480000       0.69140000
H        4.96020000      -0.82230000      -0.98660000
H        2.49750000      -1.67700000       1.86740000
H        2.03300000       0.56270000       2.87010000
H        2.22560000       1.34900000       1.24580000
H        0.18660000      -0.84710000       2.01930000
