14
Properties=species:S:1:pos:R:3 gdb_128591=T pbc="F F F"
C        0.00750000       1.42760000      -0.03160000
O       -0.00610000      -0.00330000       0.01350000
C        0.57760000      -0.62900000      -1.00990000
C        0.69380000      -1.98040000      -1.19620000
N        1.36890000      -2.08150000      -2.38860000
C        1.75020000      -3.27210000      -3.04590000
O        2.33710000      -3.31610000      -4.08390000
N        1.64560000      -0.85060000      -2.89580000
N        1.16850000       0.01930000      -2.06430000
H        1.03260000       1.80920000      -0.04280000
H       -0.51670000       1.79640000      -0.91800000
H       -0.50640000       1.75220000       0.87330000
H        0.37580000      -2.83170000      -0.62170000
H        1.42770000      -4.15380000      -2.46360000
