20
Properties=species:S:1:pos:R:3 gdb_58829=T pbc="F F F"
C        0.01840000       1.54320000       0.14020000
C       -0.04010000       0.02230000      -0.02160000
O        0.78350000      -0.63820000       0.93340000
C       -1.45950000      -0.49610000       0.01740000
C       -2.16710000      -0.98470000       1.25370000
C       -1.98780000      -1.90580000       0.07270000
N       -2.88830000      -1.71200000      -1.13590000
C       -3.85420000      -0.62470000      -0.88890000
C       -2.44370000      -0.27430000      -1.15570000
H        1.05320000       1.89230000       0.08370000
H       -0.56130000       2.04710000      -0.63970000
H       -0.40110000       1.84310000       1.10860000
H        0.39420000      -0.24630000      -0.99390000
H        0.60790000      -0.23960000       1.79260000
H       -1.49030000      -1.24770000       2.06100000
H       -3.11960000      -0.59790000       1.59780000
H       -1.46450000      -2.85020000       0.14650000
H       -4.54680000      -0.50980000      -1.71840000
H       -4.31140000      -0.49170000       0.08460000
H       -2.12470000       0.18540000      -2.08720000
