19
Properties=species:S:1:pos:R:3 gdb_73034=T pbc="F F F"
O        0.01040000       1.44340000       0.13900000
C        0.01450000       0.06570000       0.05310000
C       -0.88710000      -0.74020000      -0.88080000
O       -1.08840000      -1.75030000       0.14750000
C       -0.34620000      -0.96880000       1.09090000
C        1.09270000      -0.82510000       0.65150000
C        1.84670000      -1.89400000      -0.07230000
C        3.20960000      -1.61540000      -0.66130000
C        3.07830000      -2.50550000       0.54970000
H        0.78920000       1.77880000      -0.31810000
H       -1.82660000      -0.22080000      -1.09930000
H       -0.45840000      -1.15440000      -1.80050000
H       -0.71110000      -0.91610000       2.10980000
H        1.67170000      -0.26250000       1.38410000
H        1.21080000      -2.57680000      -0.62550000
H        3.46430000      -2.06930000      -1.61290000
H        3.63400000      -0.62680000      -0.51610000
H        3.41090000      -2.11230000       1.50500000
H        3.24010000      -3.57090000       0.42990000
