17
Properties=species:S:1:pos:R:3 gdb_130156=T pbc="F F F"
N       -0.10810000       1.34640000      -0.07530000
C       -0.12640000      -0.04190000      -0.04840000
C       -1.21770000      -0.90030000       0.01700000
C       -2.64880000      -0.47700000       0.02800000
O       -2.92810000       0.53610000      -0.95460000
C       -0.62750000      -2.19320000       0.09400000
N       -1.29940000      -3.40810000       0.25300000
N        0.69680000      -2.15450000       0.07150000
N        0.98140000      -0.81130000      -0.01280000
H        0.65700000       1.74550000      -0.60350000
H       -0.99900000       1.70110000      -0.40570000
H       -3.31090000      -1.34520000      -0.10780000
H       -2.93730000      -0.01120000       0.97800000
H       -2.63240000       0.18410000      -1.80180000
H       -2.12140000      -3.49040000      -0.33140000
H       -0.67560000      -4.18860000       0.08740000
H        1.94090000      -0.51580000       0.00660000
