23
Properties=species:S:1:pos:R:3 gdb_119467=T pbc="F F F"
C       -0.16100000       1.56660000      -0.06600000
C       -0.06320000       0.05450000      -0.16630000
O       -1.30920000      -0.50100000       0.24140000
C       -1.35460000      -1.87610000       0.16500000
C       -1.56740000      -2.60370000      -1.13300000
C       -2.58610000      -2.74190000      -0.01650000
C       -2.08660000      -3.70940000       1.07180000
C       -1.92700000      -5.18590000       0.73160000
C       -0.79760000      -2.82460000       1.23760000
H        0.78140000       2.03100000      -0.37160000
H       -0.95980000       1.94270000      -0.71170000
H       -0.38090000       1.87040000       0.96140000
H        0.16310000      -0.25780000      -1.19720000
H        0.74740000      -0.32450000       0.47530000
H       -1.89620000      -1.96500000      -1.94690000
H       -0.93820000      -3.43640000      -1.43880000
H       -3.61640000      -2.44090000      -0.16500000
H       -2.70880000      -3.60920000       1.96660000
H       -1.31740000      -5.33190000      -0.16610000
H       -1.44320000      -5.72730000       1.55210000
H       -2.90060000      -5.65500000       0.55090000
H        0.16070000      -3.30590000       1.01380000
H       -0.73990000      -2.35510000       2.22230000
