15
Properties=species:S:1:pos:R:3 gdb_14258=T pbc="F F F"
O       -0.09610000       1.43870000      -0.05900000
C       -0.01170000       0.03840000       0.04210000
C        0.27050000      -0.60260000       1.43870000
C       -1.09990000      -1.35040000       1.36340000
C       -1.40650000      -0.63670000       0.00270000
N       -2.46520000       0.09570000       0.69310000
C       -2.21580000      -0.45650000       1.94100000
O       -2.67140000      -0.23610000       3.02930000
H        0.78290000       1.81000000       0.06650000
H        0.64820000      -0.38400000      -0.72900000
H        1.13840000      -1.26490000       1.44960000
H        0.35130000       0.10470000       2.26710000
H       -1.13090000      -2.42480000       1.52560000
H       -1.71660000      -1.13900000      -0.91390000
H       -2.80470000       1.02660000       0.49080000
