19
Properties=species:S:1:pos:R:3 gdb_57064=T pbc="F F F"
C       -0.36370000       1.49430000      -0.09430000
C        0.13700000       0.06480000      -0.06670000
O        1.43090000      -0.08780000      -0.70380000
C        1.94330000      -0.85220000       0.40350000
C        0.67570000      -0.58450000       1.24040000
C        0.86450000       0.32660000       2.45900000
O       -0.38490000       0.76850000       2.98470000
C        1.67810000      -0.34370000       3.47870000
C        2.30920000      -0.93490000       4.31420000
H        0.36390000       2.18450000       0.34090000
H       -0.53740000       1.79980000      -1.13080000
H       -1.30030000       1.58300000       0.46250000
H       -0.60060000      -0.58960000      -0.55430000
H        2.10840000      -1.90490000       0.14130000
H        2.87890000      -0.43620000       0.79700000
H        0.13350000      -1.48010000       1.55560000
H        1.37770000       1.24330000       2.14610000
H       -0.78290000       0.02400000       3.44990000
H        2.87830000      -1.43740000       5.05730000
