17
Properties=species:S:1:pos:R:3 gdb_26990=T pbc="F F F"
C       -0.79090000       1.45680000       0.42110000
C       -0.28160000       0.08290000       0.12490000
C        0.24010000      -0.40910000      -1.04850000
C        0.44740000       0.20560000      -2.40570000
C        1.54400000      -0.40740000      -3.15260000
C        2.42950000      -0.95280000      -3.75570000
N        0.53550000      -1.73170000      -0.78980000
C        0.20000000      -1.97510000       0.50610000
N       -0.29980000      -0.90930000       1.08550000
H       -0.51720000       2.16750000      -0.36440000
H       -1.88320000       1.46960000       0.51480000
H       -0.38280000       1.82040000       1.36920000
H       -0.46910000       0.13360000      -3.01030000
H        0.63790000       1.27860000      -2.28550000
H        3.22250000      -1.40510000      -4.29850000
H        0.99690000      -2.35350000      -1.43420000
H        0.34770000      -2.93960000       0.96890000
