20
Properties=species:S:1:pos:R:3 gdb_45593=T pbc="F F F"
O        0.15450000       0.05190000      -0.72580000
C        0.06450000       1.11460000      -0.18750000
C       -0.96640000       1.79060000       0.72880000
N       -0.16220000       3.03410000       0.63920000
C        0.23770000       3.70780000       1.86810000
C        1.07900000       2.85180000       2.85130000
C        1.99460000       1.83230000       2.12370000
C        2.26140000       2.22160000       0.66200000
C        0.94790000       2.37420000      -0.11640000
H       -1.98640000       1.87670000       0.33680000
H       -1.01340000       1.31780000       1.72150000
H        0.81570000       4.59040000       1.56910000
H       -0.65950000       4.08870000       2.36710000
H        1.67800000       3.53200000       3.46710000
H        0.42400000       2.31830000       3.54800000
H        2.94190000       1.72250000       2.65970000
H        1.52780000       0.83980000       2.13830000
H        2.81660000       3.16690000       0.61660000
H        2.88210000       1.46930000       0.16370000
H        1.13070000       2.83360000      -1.09690000
