18
Properties=species:S:1:pos:R:3 gdb_48949=T pbc="F F F"
O       -0.12610000       0.07270000       0.26030000
C        0.03310000       1.24360000       0.01040000
C        1.35250000       1.90170000      -0.04030000
C        2.64970000       1.24980000       0.41870000
C        3.54710000       2.48520000       0.19390000
C        3.22690000       2.84450000      -1.27360000
C        1.71340000       2.91970000      -1.09740000
N        1.39600000       3.37270000       0.26240000
C        2.71720000       3.56060000       0.92140000
H       -0.82160000       1.92090000      -0.20590000
H        2.60860000       0.92360000       1.46140000
H        2.92280000       0.39310000      -0.20290000
H        4.59740000       2.39460000       0.46400000
H        3.65910000       3.79930000      -1.58950000
H        3.52810000       2.06950000      -1.98440000
H        1.03250000       3.20750000      -1.88950000
H        2.62150000       3.39250000       1.99740000
H        3.06770000       4.58230000       0.74780000
