19
Properties=species:S:1:pos:R:3 gdb_77825=T pbc="F F F"
C       -0.04720000       1.53380000      -0.04900000
C        0.01570000       0.03130000       0.09660000
N        1.25460000      -0.75890000      -0.16730000
C        2.45070000       0.04450000      -0.17040000
O        3.10600000       0.30820000      -1.14600000
N        2.71770000       0.42660000       1.12320000
C        1.69080000       0.07610000       2.07990000
C        0.69560000      -0.69840000       1.20250000
C        0.11150000      -1.96430000       1.77870000
H        0.78790000       2.04670000       0.43180000
H       -0.04690000       1.81300000      -1.10730000
H       -0.97660000       1.90450000       0.39570000
H       -0.85260000      -0.47270000      -0.32500000
H        3.50040000       1.02710000       1.32260000
H        2.07620000      -0.57460000       2.87500000
H        1.24370000       0.95830000       2.55860000
H       -0.51140000      -1.74180000       2.65270000
H       -0.50760000      -2.47640000       1.03820000
H        0.90390000      -2.65200000       2.09290000
