20
Properties=species:S:1:pos:R:3 gdb_87002=T pbc="F F F"
C        0.55540000       1.12800000       0.61530000
C        0.17660000      -0.26450000       0.15820000
C        0.52620000      -0.70310000      -1.28230000
C        1.26360000      -1.87090000      -0.59720000
C        2.73510000      -2.04750000      -0.92050000
O        3.32900000      -3.11900000      -0.19580000
C        3.68670000      -2.86220000       1.08370000
N        4.18580000      -3.78480000       1.78480000
O        1.04400000      -1.29090000       0.71080000
H        1.58700000       1.36420000       0.33590000
H       -0.10880000       1.87200000       0.16220000
H        0.46670000       1.20960000       1.70320000
H       -0.86840000      -0.47860000       0.42240000
H       -0.30510000      -0.96510000      -1.93710000
H        1.19020000      -0.00560000      -1.80110000
H        0.75560000      -2.84050000      -0.68350000
H        2.84790000      -2.30580000      -1.97840000
H        3.27120000      -1.10700000      -0.73450000
H        3.49360000      -1.82880000       1.39230000
H        4.40890000      -3.42750000       2.71150000
