18
Properties=species:S:1:pos:R:3 gdb_64969=T pbc="F F F"
C       -0.09400000       1.51490000      -0.73180000
C       -0.06500000       0.20410000       0.02470000
C        0.85260000      -0.88090000      -0.45460000
N        1.13380000      -0.18120000       0.79870000
C       -1.38650000      -0.19130000       0.64470000
O       -2.42030000       0.27560000       0.23270000
C       -1.33220000      -1.17630000       1.82270000
C       -2.63710000      -1.62940000       2.27130000
C       -3.70970000      -2.01480000       2.64910000
H        0.86410000       1.69600000      -1.22890000
H       -0.88580000       1.50310000      -1.48360000
H       -0.29810000       2.35100000      -0.05520000
H        0.57980000      -1.92750000      -0.35250000
H        1.44750000      -0.65480000      -1.33580000
H        1.86360000       0.51410000       0.66330000
H       -0.69170000      -2.02670000       1.56100000
H       -0.78570000      -0.67100000       2.62970000
H       -4.66130000      -2.34980000       2.97970000
