21
Properties=species:S:1:pos:R:3 gdb_100338=T pbc="F F F"
C        0.04620000       1.29180000       0.14770000
O       -0.12250000      -0.08350000      -0.15020000
C        0.62480000      -0.63390000      -1.24710000
C        0.48890000      -2.14730000      -1.08090000
C       -0.03830000      -0.16580000      -2.56110000
O       -1.42550000      -0.42000000      -2.55080000
C        2.11320000      -0.20080000      -1.24300000
C        2.82820000      -0.51390000      -0.01300000
C        3.41480000      -0.76260000       1.00620000
H        1.04690000       1.50420000       0.54320000
H       -0.14370000       1.94310000      -0.71650000
H       -0.68810000       1.52690000       0.92220000
H       -0.56310000      -2.43180000      -1.14260000
H        1.03360000      -2.67050000      -1.87270000
H        0.88900000      -2.45620000      -0.11330000
H        0.16950000       0.90560000      -2.72190000
H        0.39130000      -0.70870000      -3.41010000
H       -1.71720000      -0.21130000      -1.65330000
H        2.60270000      -0.69680000      -2.09040000
H        2.18640000       0.87500000      -1.44350000
H        3.93470000      -0.98690000       1.90450000
