17
Properties=species:S:1:pos:R:3 gdb_109419=T pbc="F F F"
C        0.04750000       1.59660000       0.13610000
C        0.03700000       0.07140000       0.00610000
C       -1.38010000      -0.52630000      -0.07320000
C       -2.10900000      -0.30470000      -1.40130000
O       -2.27410000       0.74480000      -1.97760000
C       -2.57970000      -1.63680000      -1.88790000
C       -2.18850000      -2.61360000      -1.05690000
C       -1.40380000      -2.05090000       0.08130000
O       -0.86860000      -2.69020000       0.95470000
H        1.07440000       1.97290000       0.17020000
H       -0.46730000       2.06650000      -0.70500000
H       -0.45470000       1.91290000       1.05720000
H        0.60310000      -0.23360000      -0.88280000
H        0.53450000      -0.39190000       0.86490000
H       -1.99160000      -0.09600000       0.73220000
H       -3.14910000      -1.73690000      -2.80420000
H       -2.37270000      -3.67690000      -1.15330000
