25
Properties=species:S:1:pos:R:3 gdb_99768=T pbc="F F F"
C       -0.43580000       1.31010000       0.14510000
O        0.16770000       0.05400000      -0.09790000
C        0.84840000      -0.52050000       1.02780000
C        0.15610000      -1.82970000       1.44770000
C        0.87520000      -2.49560000       2.63130000
C       -1.32320000      -1.59140000       1.78140000
C        2.33410000      -0.64820000       0.62380000
C        2.58970000      -1.67960000      -0.47810000
O        2.80990000       0.63450000       0.23000000
H        0.29890000       2.05500000       0.48090000
H       -0.87390000       1.64290000      -0.80030000
H       -1.23450000       1.24520000       0.89690000
H        0.80650000       0.18680000       1.86930000
H        0.19580000      -2.50940000       0.58730000
H        0.33640000      -3.39400000       2.94890000
H        1.89780000      -2.79610000       2.38650000
H        0.92270000      -1.81950000       3.49360000
H       -1.85140000      -1.15010000       0.93320000
H       -1.81790000      -2.53480000       2.03430000
H       -1.43230000      -0.92120000       2.64310000
H        2.91850000      -0.90690000       1.51280000
H        1.94430000      -1.48500000      -1.34090000
H        3.63180000      -1.61110000      -0.80080000
H        2.40230000      -2.70220000      -0.13700000
H        2.24700000       0.89640000      -0.50900000
