21
Properties=species:S:1:pos:R:3 gdb_81072=T pbc="F F F"
C       -0.27870000       1.50280000      -0.25900000
C        0.01360000       0.03410000      -0.02190000
N        1.21850000      -0.61240000      -0.75070000
C        2.10220000       0.02340000       0.33120000
C        0.87570000      -0.50730000       1.14850000
C        1.03240000      -1.75670000       0.26010000
N        0.54240000      -0.47940000       2.53760000
C        1.64200000      -0.59620000       3.49420000
C        0.94420000       0.70270000       3.29960000
H        0.55270000       2.16830000      -0.01810000
H       -0.54440000       1.66230000      -1.30930000
H       -1.13570000       1.80640000       0.35140000
H       -0.89490000      -0.54960000      -0.20870000
H        3.05890000      -0.49120000       0.45300000
H        2.25440000       1.09590000       0.21100000
H        0.14570000      -2.36820000       0.07420000
H        1.92810000      -2.37040000       0.38590000
H        1.43840000      -1.20720000       4.36860000
H        2.65350000      -0.67990000       3.10190000
H        1.49020000       1.48500000       2.77640000
H        0.22250000       1.05740000       4.02930000
