20
Properties=species:S:1:pos:R:3 gdb_113328=T pbc="F F F"
C        0.42410000       1.68420000       0.01060000
C       -0.14750000       0.27330000      -0.10930000
N        0.54390000      -0.44480000      -1.17990000
C        1.72600000      -1.21620000      -0.85150000
C        0.46220000      -1.91140000      -1.27220000
C       -0.31110000      -2.78550000      -0.27470000
N       -1.73860000      -2.93560000      -0.52240000
C        0.35380000      -2.39660000      -2.63720000
N        0.24330000      -2.83270000      -3.70250000
H        1.48260000       1.65410000       0.28810000
H        0.33780000       2.21500000      -0.94090000
H       -0.11140000       2.24930000       0.77920000
H       -0.07650000      -0.23580000       0.86460000
H       -1.20960000       0.32370000      -0.37620000
H        2.56580000      -1.13760000      -1.53560000
H        1.99410000      -1.33070000       0.19960000
H        0.14370000      -3.78240000      -0.28270000
H       -0.16600000      -2.38810000       0.73370000
H       -2.19700000      -2.02980000      -0.53650000
H       -1.89460000      -3.35470000      -1.43480000
