19
Properties=species:S:1:pos:R:3 gdb_101011=T pbc="F F F"
O       -0.01680000       1.45070000       0.04110000
C        0.04340000       0.04850000       0.19540000
C       -1.35130000      -0.56120000       0.00420000
O       -1.88710000      -0.11790000      -1.24290000
C       -1.38000000      -2.08590000       0.06070000
O       -0.59460000      -2.52850000      -1.02670000
C       -1.14080000      -2.71060000       1.45880000
O       -2.54570000      -2.99660000       1.59930000
C       -2.79920000      -2.68260000       0.21560000
H       -0.57780000       1.59620000      -0.73210000
H        0.74090000      -0.41330000      -0.52080000
H        0.41990000      -0.15160000       1.20440000
H       -2.01850000      -0.16250000       0.77610000
H       -1.45860000      -0.66170000      -1.91780000
H       -0.71550000      -3.47720000      -1.13650000
H       -0.52770000      -3.62310000       1.42120000
H       -0.76800000      -2.05960000       2.25690000
H       -3.64620000      -2.00290000       0.08140000
H       -2.96010000      -3.58700000      -0.39200000
