17
Properties=species:S:1:pos:R:3 gdb_53872=T pbc="F F F"
C        0.03660000       1.48460000       0.20870000
C        0.06300000      -0.01870000       0.31200000
O        1.05920000      -0.67530000       0.50520000
C       -1.30180000      -0.73700000       0.15140000
O       -2.30390000      -0.09020000      -0.04320000
C       -1.27170000      -2.24960000       0.23740000
C       -2.67130000      -2.87140000       0.24630000
C       -2.62170000      -4.36330000       0.00990000
O       -3.12860000      -5.19320000       0.71780000
H        1.04490000       1.87990000       0.33230000
H       -0.37800000       1.78720000      -0.75810000
H       -0.63320000       1.89980000       0.96860000
H       -0.67850000      -2.60830000      -0.61670000
H       -0.68380000      -2.53740000       1.11570000
H       -3.19510000      -2.67550000       1.18490000
H       -3.26100000      -2.41840000      -0.56210000
H       -2.06190000      -4.65930000      -0.91000000
