21
Properties=species:S:1:pos:R:3 gdb_89166=T pbc="F F F"
C       -0.17960000       1.54710000      -0.02360000
C        0.12320000       0.05350000      -0.01100000
C        1.09100000      -0.59540000      -1.06140000
C        1.84400000      -1.29620000       0.08970000
C        2.32390000      -2.71910000       0.04040000
C        2.46580000      -0.27770000       1.03110000
C        3.12130000       0.98890000       0.62680000
O        4.03300000       1.48840000       1.24510000
C        0.96560000      -0.57960000       1.10350000
H        0.72480000       2.16080000      -0.00140000
H       -0.74390000       1.81920000      -0.92240000
H       -0.78670000       1.82510000       0.84500000
H       -0.82810000      -0.48860000      -0.05160000
H        0.58180000      -1.30730000      -1.71560000
H        1.67230000       0.08360000      -1.69100000
H        3.18230000      -2.82550000      -0.63330000
H        2.63420000      -3.06860000       1.03010000
H        1.53390000      -3.38760000      -0.32110000
H        2.99720000      -0.73570000       1.86230000
H        2.75440000       1.46230000      -0.30700000
H        0.57430000      -0.94830000       2.04600000
