17
Properties=species:S:1:pos:R:3 gdb_50635=T pbc="F F F"
N       -0.18780000       1.43420000      -0.12260000
C       -0.06780000       0.18000000      -0.20920000
C       -1.27420000      -0.72720000      -0.09180000
N       -1.11030000      -1.94330000      -0.88420000
C        0.10710000      -2.63670000      -0.49060000
C        1.27010000      -1.72970000      -0.86890000
O        1.16120000      -0.42050000      -0.29300000
C        2.62100000      -2.27620000      -0.43490000
O        2.92450000      -3.43540000      -0.53590000
H        0.73050000       1.88140000      -0.16370000
H       -1.40620000      -0.93780000       0.98750000
H       -2.14570000      -0.16480000      -0.42840000
H       -1.91850000      -2.54270000      -0.76430000
H        0.15650000      -2.86470000       0.59050000
H        0.21080000      -3.57650000      -1.03730000
H        1.28340000      -1.62430000      -1.96480000
H        3.31020000      -1.50760000      -0.02350000
