19
Properties=species:S:1:pos:R:3 gdb_39883=T pbc="F F F"
C        0.00440000       1.54640000       0.05240000
N        1.23540000       0.70930000       0.03320000
C       -0.07730000       0.07720000       0.02430000
C       -0.52690000      -0.98970000       1.02970000
C       -2.04070000      -0.94660000       0.73250000
N       -1.99270000      -1.37690000      -0.70710000
C       -1.41550000      -2.76730000      -0.51670000
C       -0.13060000      -2.08400000      -0.06640000
C       -0.53110000      -0.91820000      -1.02050000
H       -0.15530000       2.08860000       0.98070000
H       -0.26290000       2.09680000      -0.84620000
H        1.63540000       0.71060000      -0.90330000
H       -0.15890000      -1.01430000       2.05350000
H       -2.65230000      -1.64130000       1.31270000
H       -2.46170000       0.05790000       0.82450000
H       -1.98190000      -3.41190000       0.16300000
H       -1.30810000      -3.26040000      -1.48720000
H        0.86160000      -2.53050000      -0.01240000
H       -0.31480000      -0.85690000      -2.08670000
