18
Properties=species:S:1:pos:R:3 gdb_119332=T pbc="F F F"
C        0.58830000       1.43820000       0.12420000
O        0.86730000       0.05860000       0.11890000
C       -0.03320000      -0.68190000       0.91720000
C        0.36800000      -2.11340000       0.90380000
C        1.55330000      -2.90060000       1.52480000
C        1.28880000      -4.03540000       0.52600000
C        0.57100000      -3.99480000       1.84870000
N       -0.60450000      -3.20860000       1.26460000
C        0.11460000      -3.21630000      -0.06290000
H        0.64970000       1.86520000       1.13810000
H        1.33360000       1.92470000      -0.50950000
H       -0.41510000       1.65470000      -0.27620000
H       -0.03650000      -0.29840000       1.95280000
H       -1.06680000      -0.60180000       0.53950000
H        2.48060000      -2.60490000       1.99350000
H        1.98040000      -4.75350000       0.11060000
H        0.49480000      -4.70000000       2.66650000
H       -0.41560000      -3.23660000      -1.00770000
