18
Properties=species:S:1:pos:R:3 gdb_77371=T pbc="F F F"
C       -0.02630000       1.49540000      -0.03420000
C       -0.05770000       0.00030000      -0.04300000
C        0.56820000      -0.99500000      -0.95470000
N        1.19370000      -0.73560000       0.37080000
C        0.72740000      -2.07070000       0.87830000
C       -0.34030000      -2.08210000      -0.22190000
O       -0.96480000      -3.21360000      -0.71050000
C       -1.25690000      -0.90580000       0.18920000
O       -1.82290000      -0.87860000       1.47720000
H        0.96370000       1.85700000      -0.32370000
H       -0.76650000       1.90760000      -0.72830000
H       -0.24940000       1.87860000       0.96690000
H        1.07010000      -0.90910000      -1.90950000
H        1.52840000      -2.79920000       0.71360000
H        0.38960000      -2.09050000       1.91850000
H       -0.30280000      -3.90000000      -0.84620000
H       -2.00950000      -0.73640000      -0.59380000
H       -2.58030000      -1.47290000       1.48550000
