13
Properties=species:S:1:pos:R:3 gdb_20722=T pbc="F F F"
C       -0.02290000       1.53310000      -0.00250000
C       -0.00100000       0.03290000      -0.02220000
N       -0.05540000      -0.58420000      -1.17060000
N       -0.03220000      -1.91590000      -1.12040000
C        0.04390000      -2.73580000       0.01810000
O        0.05610000      -3.93880000      -0.09240000
N        0.10040000      -2.04020000       1.23140000
C        0.07800000      -0.74650000       1.18670000
H        0.88140000       1.93610000       0.46730000
H       -0.08730000       1.91560000      -1.02210000
H       -0.87920000       1.90920000       0.56850000
H       -0.07470000      -2.38680000      -2.01470000
H        0.12280000      -0.21750000       2.14100000
