21
Properties=species:S:1:pos:R:3 gdb_122815=T pbc="F F F"
C       -0.08890000       1.40070000       0.18730000
C        0.05900000      -0.09680000      -0.07000000
C        0.79440000      -0.40120000      -1.35980000
O        1.23210000       0.41720000      -2.12950000
O        0.90180000      -1.73360000      -1.54570000
C        1.58460000      -2.14570000      -2.74310000
C        1.59790000      -3.66500000      -2.76220000
C        2.30220000      -4.21690000      -3.99580000
O        2.25810000      -5.63220000      -3.91550000
H        0.88860000       1.88560000       0.24970000
H       -0.64110000       1.88430000      -0.62250000
H       -0.62350000       1.57690000       1.12470000
H        0.59800000      -0.59390000       0.74520000
H       -0.91640000      -0.59520000      -0.11790000
H        1.06440000      -1.72880000      -3.61250000
H        2.59670000      -1.72640000      -2.73950000
H        2.10090000      -4.04220000      -1.86550000
H        0.57090000      -4.04470000      -2.73800000
H        1.80100000      -3.85220000      -4.90760000
H        3.34150000      -3.85040000      -4.02880000
H        2.70040000      -5.99150000      -4.69000000
