20
Properties=species:S:1:pos:R:3 gdb_120092=T pbc="F F F"
C        0.29100000       1.57000000       0.45780000
C        0.36700000       0.06670000       0.18030000
C        0.53130000      -0.24550000      -1.31040000
N        0.59790000      -1.69920000      -1.51090000
C       -0.03230000      -2.51470000      -2.50190000
C        0.12960000      -1.98150000      -3.98320000
O        0.81990000      -0.72810000      -3.95380000
C        1.57810000      -1.93590000      -3.83350000
C        1.46700000      -2.46740000      -2.34690000
H        1.19810000       2.08430000       0.11990000
H       -0.55790000       2.02900000      -0.06180000
H        0.17400000       1.77230000       1.52680000
H        1.20570000      -0.37760000       0.72990000
H       -0.53730000      -0.43240000       0.54920000
H       -0.30610000       0.17370000      -1.87730000
H        1.43930000       0.22860000      -1.69650000
H       -0.74020000      -3.28640000      -2.21780000
H       -0.49730000      -2.20200000      -4.83830000
H        2.37900000      -2.11160000      -4.54110000
H        2.14860000      -3.19530000      -1.91920000
