19
Properties=species:S:1:pos:R:3 gdb_102489=T pbc="F F F"
O        0.16960000       1.36170000       0.20200000
C        0.08090000      -0.02260000      -0.01810000
C       -1.38720000      -0.53980000       0.01500000
C       -2.15390000      -0.13730000      -1.24780000
O       -2.10630000       1.28490000      -1.36790000
C       -1.37360000      -2.04770000       0.15560000
O       -1.21950000      -2.79300000      -0.79260000
C       -1.52980000      -2.64170000       1.54620000
O       -1.38360000      -4.02800000       1.53250000
H       -0.44290000       1.77320000      -0.42310000
H        0.52890000      -0.32840000      -0.97790000
H        0.66230000      -0.50320000       0.77680000
H       -1.86190000      -0.09420000       0.89720000
H       -1.68980000      -0.62700000      -2.11280000
H       -3.19590000      -0.48280000      -1.18510000
H       -2.44500000       1.53190000      -2.23330000
H       -0.79660000      -2.16680000       2.21860000
H       -2.52390000      -2.33860000       1.92160000
H       -1.27810000      -4.26010000       0.59560000
