21
Properties=species:S:1:pos:R:3 gdb_36715=T pbc="F F F"
C       -0.01300000      -1.28200000       0.13270000
C       -0.04960000      -0.08150000       0.08250000
C       -0.05760000       1.37510000       0.02090000
C        1.36060000       1.98000000      -0.04010000
C        1.37300000       3.51620000      -0.06330000
C        2.80600000       4.11110000       0.03080000
C        2.80740000       5.37300000      -0.86780000
C        1.61640000       5.14450000      -1.76790000
C        0.84240000       4.15210000      -1.33340000
H        0.00640000      -2.34250000       0.17710000
H       -0.63890000       1.69530000      -0.85280000
H       -0.58520000       1.77430000       0.89760000
H        1.92580000       1.62720000       0.83050000
H        1.87910000       1.59510000      -0.92610000
H        0.76710000       3.86450000       0.78940000
H        3.10620000       4.31870000       1.06110000
H        3.51680000       3.38000000      -0.37090000
H        2.67580000       6.29380000      -0.28170000
H        3.74610000       5.49570000      -1.41990000
H        1.41440000       5.75900000      -2.63880000
H       -0.08700000       3.84300000      -1.79980000
