16
Properties=species:S:1:pos:R:3 gdb_125595=T pbc="F F F"
C       -0.05680000       1.49550000      -0.03540000
C       -0.01850000      -0.00640000       0.00610000
N       -0.00840000      -0.63390000      -1.13450000
N        0.01630000      -1.96740000      -1.11580000
C        0.03640000      -2.82280000       0.00050000
O        0.06140000      -4.03280000      -0.15920000
C        0.03040000      -2.09550000       1.24340000
C       -0.00120000      -0.72740000       1.26620000
N       -0.07120000      -0.00260000       2.43610000
H        0.83660000       1.94060000       0.42300000
H       -0.10160000       1.82540000      -1.07400000
H       -0.93030000       1.88980000       0.49720000
H        0.02140000      -2.41340000      -2.02310000
H        0.04850000      -2.68300000       2.15430000
H        0.15440000      -0.49540000       3.28630000
H        0.26180000       0.94740000       2.41600000
