22
Properties=species:S:1:pos:R:3 gdb_108627=T pbc="F F F"
C        0.10660000       1.52850000       0.36880000
C       -0.02170000       0.05260000      -0.05110000
C       -1.44000000      -0.43730000      -0.10400000
C       -2.12090000      -0.88590000      -1.17260000
C       -1.67960000      -0.99360000      -2.59900000
C       -3.47340000      -1.37440000      -0.75550000
N       -3.39460000      -2.54100000       0.17550000
C       -3.57180000      -1.17200000       0.71040000
C       -2.27700000      -0.51860000       1.16880000
H        1.15690000       1.83550000       0.39330000
H       -0.42200000       2.18170000      -0.33280000
H       -0.31230000       1.70130000       1.36510000
H        0.46270000      -0.08790000      -1.02270000
H        0.54340000      -0.56500000       0.66150000
H       -0.68630000      -0.57050000      -2.76590000
H       -1.65940000      -2.04180000      -2.92420000
H       -2.37850000      -0.47350000      -3.26700000
H       -4.32490000      -1.30350000      -1.42580000
H       -4.30470000      -3.00040000       0.19090000
H       -4.50880000      -0.92260000       1.19650000
H       -1.77350000      -1.10890000       1.94510000
H       -2.46640000       0.47470000       1.59730000
