16
Properties=species:S:1:pos:R:3 gdb_29594=T pbc="F F F"
N        0.18000000       1.37430000       0.16270000
C        0.06160000      -0.02610000       0.08090000
C       -1.08430000      -0.78530000      -0.01390000
N       -0.70200000      -2.10410000      -0.16050000
C        0.65800000      -2.19790000      -0.14590000
C        1.17010000      -0.92600000      -0.00730000
C        2.62260000      -0.53720000       0.00270000
C        3.00770000       0.18160000       1.22420000
N        3.26950000       0.77540000       2.18120000
H        0.83220000       1.66330000       0.88450000
H       -0.71010000       1.82380000       0.33690000
H       -2.12370000      -0.50120000       0.00780000
H       -1.33380000      -2.87860000      -0.25230000
H        1.15990000      -3.14780000      -0.23920000
H        3.25830000      -1.42350000      -0.09330000
H        2.86140000       0.11770000      -0.84610000
