10
Properties=species:S:1:pos:R:3 gdb_130729=T pbc="F F F"
O       -0.04540000      -0.07060000       0.00410000
C        0.02680000       1.12650000       0.00860000
N       -1.14510000       1.92670000       0.02910000
N       -1.21280000       3.24870000       0.03640000
N       -0.12150000       3.91190000       0.02410000
C        1.05540000       3.16920000       0.00330000
N        1.19590000       1.88220000      -0.00450000
C        2.24700000       3.98670000      -0.00840000
N        3.19810000       4.64230000      -0.01780000
H       -2.04340000       1.45650000       0.03970000
