17
Properties=species:S:1:pos:R:3 gdb_105431=T pbc="F F F"
C        0.03980000       1.54980000      -0.02000000
C        0.12700000       0.02420000       0.04090000
C        0.71220000      -0.52510000       1.34990000
C        0.93830000      -2.07920000       1.32900000
N        2.39030000      -2.25350000       1.42310000
C        2.87950000      -1.09330000       1.53020000
O        2.06200000      -0.00620000       1.52720000
C       -0.08530000      -0.10170000       2.51060000
N       -0.74430000       0.20340000       3.40930000
H        1.02720000       2.00100000       0.10650000
H       -0.36100000       1.86810000      -0.98610000
H       -0.61660000       1.94080000       0.76320000
H       -0.86450000      -0.42500000      -0.09090000
H        0.76040000      -0.35840000      -0.76770000
H        0.44270000      -2.58220000       2.16340000
H        0.55990000      -2.51640000       0.39970000
H        3.93200000      -0.85340000       1.62720000
