13
Properties=species:S:1:pos:R:3 gdb_129104=T pbc="F F F"
N       -0.07940000       1.24890000      -0.07180000
C        0.00240000      -0.01030000       0.01720000
C       -1.25320000      -0.92850000       0.01830000
C       -0.60620000      -2.27060000      -0.03970000
C        0.74040000      -2.15300000       0.00600000
N        1.15680000      -0.82450000       0.13090000
N        1.28660000      -3.39220000       0.00140000
N        0.36310000      -4.25890000      -0.05660000
O       -0.93100000      -3.54630000      -0.07120000
H        0.83610000       1.70040000      -0.05400000
H       -1.83760000      -0.76870000       0.93050000
H       -1.89840000      -0.68890000      -0.83100000
H        2.04650000      -0.49530000      -0.21020000
