17
Properties=species:S:1:pos:R:3 gdb_125950=T pbc="F F F"
C       -0.03350000       1.61180000      -0.02320000
C        0.01650000       0.08270000       0.04670000
C        0.74380000      -0.59560000      -1.17200000
C        1.56180000      -1.83110000      -0.65110000
C        1.64100000      -1.50180000       0.80480000
C        0.81760000      -0.48670000       1.17730000
O        0.88160000      -0.25630000       2.45950000
N        1.91650000      -1.30450000       2.94430000
N        2.26360000      -1.94330000       1.93720000
H        0.97530000       2.03290000      -0.08100000
H       -0.58880000       1.93540000      -0.90870000
H       -0.52590000       2.03020000       0.85920000
H       -1.01190000      -0.29660000       0.12630000
H        0.03880000      -0.87040000      -1.95970000
H        1.43910000       0.13340000      -1.60060000
H        1.02980000      -2.77310000      -0.83010000
H        2.53290000      -1.91150000      -1.14760000
