19
Properties=species:S:1:pos:R:3 gdb_117317=T pbc="F F F"
C       -0.50740000       0.76950000       0.15740000
O        0.41800000      -0.29330000       0.10680000
C        0.44010000      -0.93140000      -1.12980000
C        1.43960000      -2.07560000      -1.12870000
O        2.16170000      -2.33740000      -0.20120000
C        1.41000000      -2.92870000      -2.40380000
C        0.49130000      -4.13100000      -2.12910000
C        1.15780000      -5.32910000      -1.49380000
O       -0.69010000      -4.07120000      -2.37260000
H       -0.26990000       1.55300000      -0.57940000
H       -1.53650000       0.42410000      -0.02680000
H       -0.45060000       1.19770000       1.16040000
H       -0.54360000      -1.35330000      -1.41040000
H        0.71810000      -0.24200000      -1.95060000
H        0.99760000      -2.36890000      -3.24590000
H        2.43020000      -3.25460000      -2.61700000
H        1.75920000      -5.00210000      -0.63850000
H        0.41050000      -6.06080000      -1.18590000
H        1.84900000      -5.78840000      -2.21050000
