16
Properties=species:S:1:pos:R:3 gdb_99511=T pbc="F F F"
C        0.43950000       0.43480000      -1.04070000
O       -0.21990000      -0.73120000      -0.56380000
C       -1.30040000      -0.47690000       0.28960000
C       -2.43440000       0.15970000      -0.41100000
N       -3.28870000       0.67020000      -0.99710000
C       -1.75020000      -1.79910000       0.95170000
O       -2.73060000      -1.83030000       1.65370000
C       -0.90690000      -3.03460000       0.71850000
O       -1.40960000      -4.12670000       1.42570000
H        1.27370000       0.08980000      -1.65290000
H       -0.23090000       1.05140000      -1.65180000
H        0.82440000       1.03880000      -0.20700000
H       -1.00770000       0.19200000       1.11820000
H       -0.87770000      -3.22080000      -0.36720000
H        0.13070000      -2.80650000       1.00710000
H       -2.21530000      -3.81600000       1.86580000
