19
Properties=species:S:1:pos:R:3 gdb_98407=T pbc="F F F"
C        0.20070000       1.09810000      -0.46280000
C        0.39170000      -0.27180000       0.13400000
O        1.70790000      -0.65200000       0.53890000
C        0.70240000      -0.53730000       1.56300000
C        0.86430000       0.55260000       2.59520000
C        0.22810000      -1.86400000       2.12870000
O       -0.53710000      -1.90370000       3.06050000
C        0.80440000      -3.11620000       1.47860000
O        0.19510000      -4.24720000       2.04410000
H        0.77170000       1.86100000       0.06800000
H        0.53060000       1.09440000      -1.50690000
H       -0.85910000       1.37320000      -0.44730000
H       -0.14220000      -1.06120000      -0.40030000
H        1.07960000       1.51940000       2.14020000
H       -0.04910000       0.62180000       3.19000000
H        1.68610000       0.30470000       3.27460000
H        0.66640000      -3.05550000       0.38750000
H        1.89510000      -3.08320000       1.64180000
H        0.60680000      -5.02620000       1.65940000
