21
Properties=species:S:1:pos:R:3 gdb_113432=T pbc="F F F"
C        0.59840000       1.36310000       0.01550000
C       -0.04490000      -0.01940000       0.00320000
C        0.63330000      -1.03830000      -0.97110000
C        1.27880000      -1.69890000       0.25150000
C        0.36090000      -0.93270000       1.20600000
O        1.56950000      -3.08280000       0.36880000
C        2.66040000      -2.14020000       0.46970000
C        3.68030000      -2.25360000      -0.63380000
O        4.43910000      -3.44500000      -0.50880000
H        1.68400000       1.29440000       0.15270000
H        0.41600000       1.89330000      -0.92550000
H        0.19960000       1.97710000       0.83010000
H       -1.12440000       0.07430000      -0.13700000
H       -0.08200000      -1.70960000      -1.45470000
H        1.29660000      -0.62220000      -1.73430000
H        0.82750000      -0.44300000       2.06530000
H       -0.45990000      -1.56280000       1.56020000
H        3.07510000      -2.06110000       1.47640000
H        3.17530000      -2.19850000      -1.60950000
H        4.39470000      -1.42480000      -0.57540000
H        3.80410000      -4.17020000      -0.48410000
