16
Properties=species:S:1:pos:R:3 gdb_68727=T pbc="F F F"
C        0.01130000       1.53170000       0.02020000
C       -0.09080000       0.04350000       0.09600000
O        1.06680000      -0.73410000      -0.23360000
C        0.48740000      -0.93660000       1.06710000
C        1.31440000      -0.70370000       2.21050000
N        1.95770000      -0.52660000       3.15540000
C       -0.72550000      -1.83280000       0.95100000
C       -1.96660000      -1.04760000       1.28750000
C       -1.32020000      -0.83730000      -0.05700000
H        0.95200000       1.87510000       0.45660000
H       -0.02290000       1.86000000      -1.02420000
H       -0.82200000       2.00160000       0.55040000
H       -0.69990000      -2.91200000       0.88290000
H       -2.89170000      -1.61540000       1.28080000
H       -1.93140000      -0.26820000       2.04320000
H       -1.81050000      -1.07290000      -0.99270000
