17
Properties=species:S:1:pos:R:3 gdb_36222=T pbc="F F F"
C       -0.05770000      -1.16840000       0.42640000
C       -0.03360000      -0.00150000       0.14000000
C        0.02240000       1.42130000      -0.19530000
C        1.42400000       1.97460000      -0.15560000
C        2.06410000       2.63650000      -1.12450000
C        3.46410000       3.05170000      -0.71990000
C        3.55340000       2.58320000       0.72860000
O        2.61080000       3.20140000       1.60650000
C        2.29450000       1.89780000       1.06220000
H       -0.09040000      -2.20050000       0.67350000
H       -0.41000000       1.58510000      -1.18920000
H       -0.61160000       1.97540000       0.51220000
H        1.63710000       2.89200000      -2.08860000
H        4.22870000       2.56630000      -1.34030000
H        3.62170000       4.13350000      -0.80720000
H        4.51040000       2.32810000       1.17550000
H        2.19920000       1.09810000       1.78980000
