27
Properties=species:S:1:pos:R:3 gdb_88946=T pbc="F F F"
C        0.19490000       1.61290000      -0.25580000
C        0.01030000       0.12550000      -0.04200000
C        1.18150000      -0.82410000      -0.10120000
C        0.46480000      -0.59480000       1.21190000
C        1.12210000       0.12890000       2.37200000
C        1.86730000      -0.75700000       3.40690000
C        3.00980000      -1.54260000       2.73860000
C        2.45860000       0.17300000       4.48270000
C        0.89570000      -1.74210000       4.08380000
H        1.15610000       1.96650000       0.12720000
H        0.16060000       1.85640000      -1.32360000
H       -0.59290000       2.19100000       0.24090000
H       -0.91520000      -0.25700000      -0.46610000
H        1.06790000      -1.77690000      -0.60770000
H        2.16850000      -0.38360000      -0.21010000
H       -0.19940000      -1.39920000       1.51660000
H        1.83500000       0.86710000       1.98510000
H        0.35640000       0.70360000       2.91310000
H        3.72680000      -0.86740000       2.25790000
H        3.55800000      -2.13380000       3.48080000
H        2.63320000      -2.22830000       1.97460000
H        1.67260000       0.74560000       4.98800000
H        2.99700000      -0.39970000       5.24600000
H        3.16290000       0.88850000       4.04370000
H        0.48770000      -2.46700000       3.37290000
H        1.40640000      -2.30890000       4.87020000
H        0.05460000      -1.21430000       4.54770000
