16
Properties=species:S:1:pos:R:3 gdb_57154=T pbc="F F F"
O       -0.70450000       0.95200000       0.13790000
C       -0.36690000      -0.41980000      -0.03520000
C        0.51980000      -0.63970000      -1.17520000
C        1.28100000      -0.82510000      -2.09570000
C        2.18160000      -1.01570000      -3.20490000
O        2.50800000      -2.09550000      -3.63940000
C        0.23530000      -1.03540000       1.23450000
C        1.12820000      -0.23800000       2.10470000
N       -0.24350000      -0.57190000       2.53450000
H        0.08030000       1.48000000      -0.04400000
H       -1.32190000      -0.92490000      -0.23270000
H        2.56420000      -0.07200000      -3.64350000
H        0.38710000      -2.10920000       1.15650000
H        1.92210000      -0.72730000       2.66040000
H        1.33890000       0.79070000       1.82410000
H       -0.83310000       0.24590000       2.38450000
