14
Properties=species:S:1:pos:R:3 gdb_21134=T pbc="F F F"
C        0.07160000       1.43980000       0.06700000
N       -0.01180000      -0.00450000       0.15400000
C       -1.14210000      -0.57560000       0.06840000
N       -1.15450000      -1.98720000       0.16090000
N       -2.21070000      -2.77650000       0.09800000
C       -3.36050000      -2.18440000      -0.06710000
C       -3.42990000      -0.75360000      -0.16990000
N       -2.39690000       0.02080000      -0.10850000
H        0.73070000       1.71490000      -0.76560000
H       -0.89530000       1.93560000      -0.07150000
H        0.54040000       1.83100000       0.97840000
H       -0.26080000      -2.44190000       0.28890000
H       -4.23850000      -2.81500000      -0.12110000
H       -4.40300000      -0.28020000      -0.30780000
