15
Properties=species:S:1:pos:R:3 gdb_36299=T pbc="F F F"
N       -0.09380000      -0.91250000      -0.67750000
C       -0.05790000       0.15260000      -0.23140000
C        0.00950000       1.49780000       0.34070000
C        1.38160000       2.12580000       0.16610000
C        1.87210000       2.71450000      -1.12560000
O        0.88590000       3.07570000      -2.08300000
C        0.15000000       4.05200000      -1.49080000
N        0.47150000       4.44070000      -0.32220000
C        1.60170000       3.62910000       0.06590000
H       -0.76840000       2.11490000      -0.11750000
H       -0.23460000       1.43690000       1.40730000
H        2.16970000       1.61750000       0.71390000
H        2.81970000       2.45120000      -1.57610000
H       -0.67260000       4.42680000      -2.08730000
H        2.35140000       4.10490000       0.68570000
