17
Properties=species:S:1:pos:R:3 gdb_124878=T pbc="F F F"
C       -0.27350000       1.31310000      -0.80440000
C       -0.03570000       0.01790000      -0.05530000
C        1.06250000      -0.88550000      -0.51350000
N        1.18900000      -0.14490000       0.75300000
C       -1.23810000      -0.57780000       0.57870000
C       -1.34040000      -1.26440000       1.76680000
N       -2.65360000      -1.58120000       1.84290000
N       -3.33950000      -1.12160000       0.78070000
N       -2.48020000      -0.51360000       0.01380000
H        0.64380000       1.64950000      -1.29820000
H       -1.05070000       1.17940000      -1.56120000
H       -0.61040000       2.10080000      -0.12200000
H        0.95650000      -1.96090000      -0.40500000
H        1.65460000      -0.56850000      -1.36840000
H        1.79200000       0.66410000       0.62380000
H       -0.61530000      -1.52400000       2.51750000
H       -3.14470000      -2.08080000       2.56690000
