20
Properties=species:S:1:pos:R:3 gdb_70727=T pbc="F F F"
C        0.12170000       1.52940000      -0.20200000
C       -0.07770000       0.05270000       0.10190000
N       -0.57110000      -0.29440000       1.46630000
C        0.82770000      -0.55930000       1.11580000
C        1.30490000      -1.99880000       1.13970000
O        0.38040000      -2.94750000       0.67610000
C        0.26810000      -3.04910000      -0.72700000
C       -0.52280000      -1.96350000      -1.40820000
C       -0.67370000      -0.69070000      -1.04580000
H        0.77410000       1.67140000      -1.07050000
H       -0.83690000       2.01160000      -0.42740000
H        0.57350000       2.05170000       0.64720000
H       -0.64180000       0.55120000       2.02930000
H        1.58450000       0.11590000       1.52160000
H        2.25470000      -2.06930000       0.58010000
H        1.51570000      -2.27150000       2.18100000
H        1.27310000      -3.12310000      -1.18400000
H       -0.22730000      -4.00920000      -0.91170000
H       -1.03470000      -2.29240000      -2.31140000
H       -1.30800000      -0.07040000      -1.67800000
