14
Properties=species:S:1:pos:R:3 gdb_5293=T pbc="F F F"
N       -0.04680000       1.35590000      -0.01410000
C        0.02210000      -0.02000000      -0.13550000
O        1.07980000      -0.59220000      -0.33060000
C       -1.26630000      -0.73690000      -0.05350000
C       -2.55060000      -0.22420000      -0.10540000
N       -3.42000000      -1.27170000      -0.01010000
C       -2.72160000      -2.45400000       0.09970000
C       -1.38560000      -2.15350000       0.07120000
H        0.84850000       1.81020000       0.08730000
H       -0.80200000       1.75740000       0.51790000
H       -2.90940000       0.78360000      -0.24100000
H       -4.42170000      -1.19320000      -0.04010000
H       -3.23920000      -3.39530000       0.18900000
H       -0.55820000      -2.84130000       0.13300000
