19
Properties=species:S:1:pos:R:3 gdb_102187=T pbc="F F F"
C       -0.68960000       0.12200000       0.74260000
O        0.06020000      -0.88750000       0.10060000
C        0.57190000      -0.52970000      -1.16710000
C        1.70100000      -1.52060000      -1.49880000
C        2.84910000      -1.39510000      -0.61130000
C        3.80040000      -1.27400000       0.11270000
C       -0.51230000      -0.59280000      -2.22990000
C       -1.15910000       0.61010000      -2.76990000
O       -0.15120000      -0.07690000      -3.51220000
H       -0.10490000       1.04750000       0.85490000
H       -1.61940000       0.36070000       0.20730000
H       -0.94520000      -0.25550000       1.73530000
H        0.98880000       0.48960000      -1.14580000
H        1.29210000      -2.53730000      -1.44300000
H        2.00600000      -1.35120000      -2.53770000
H        4.64030000      -1.17740000       0.75460000
H       -1.06300000      -1.53510000      -2.25530000
H       -2.16640000       0.54590000      -3.17860000
H       -0.87110000       1.59020000      -2.39130000
