15
Properties=species:S:1:pos:R:3 gdb_131175=T pbc="F F F"
O        1.36290000       0.77710000      -0.22690000
C        0.50430000      -0.26380000      -0.13580000
C        0.02130000      -1.02570000      -1.18300000
N       -0.77070000      -1.92020000      -0.52800000
N       -0.78480000      -1.72790000       0.79700000
N        0.00430000      -0.70690000       1.03470000
C        0.24590000      -1.00370000      -2.63580000
C        0.46610000       0.28750000      -3.35010000
N        1.57670000      -0.65660000      -3.17810000
H        1.52680000       1.08760000       0.67280000
H       -1.31960000      -2.66890000      -0.92120000
H       -0.24210000      -1.81070000      -3.17840000
H        0.10770000       0.39850000      -4.36970000
H        0.45860000       1.19420000      -2.75300000
H        2.17340000      -0.33760000      -2.41740000
