25
Properties=species:S:1:pos:R:3 gdb_122426=T pbc="F F F"
C       -0.04620000       1.40640000      -0.00790000
O        0.15340000       0.01760000      -0.09030000
C        0.65440000      -0.53790000       1.10690000
C        0.83180000      -2.03870000       0.91520000
C        1.36340000      -2.73750000       2.15920000
C        0.44750000      -2.88070000       3.41010000
C        1.02370000      -4.30830000       3.62690000
C        0.09640000      -5.42040000       4.09090000
C        1.49960000      -4.28520000       2.14670000
H        0.89210000       1.94460000       0.20400000
H       -0.43320000       1.74170000      -0.97360000
H       -0.77370000       1.67140000       0.77670000
H        1.61870000      -0.06840000       1.37240000
H       -0.03900000      -0.33450000       1.94190000
H       -0.13470000      -2.47170000       0.62810000
H        1.51270000      -2.20410000       0.07070000
H        2.31980000      -2.28840000       2.45540000
H        0.55460000      -2.15380000       4.21980000
H       -0.60900000      -2.92340000       3.11910000
H        1.89490000      -4.25220000       4.29010000
H       -0.78290000      -5.49510000       3.44060000
H        0.60200000      -6.39270000       4.07940000
H       -0.25950000      -5.24370000       5.11250000
H        0.75200000      -4.73960000       1.48580000
H        2.47720000      -4.71430000       1.91060000
