19
Properties=species:S:1:pos:R:3 gdb_95029=T pbc="F F F"
O        0.03440000       1.44160000       0.03780000
C        0.01560000       0.02630000      -0.00100000
C        0.76540000      -0.64110000       1.18630000
C        0.06500000      -1.98950000       1.45950000
C       -1.38810000      -1.79560000       1.00070000
C       -2.38790000      -1.01410000       1.88180000
O       -1.83330000       0.27330000       2.20470000
C       -2.44670000       0.09560000       0.91670000
C       -1.40730000      -0.58460000       0.00260000
H       -0.32490000       1.69640000       0.89600000
H        0.50930000      -0.23500000      -0.94340000
H        1.83250000      -0.75700000       0.97640000
H        0.67100000       0.01280000       2.05690000
H        0.52240000      -2.78430000       0.85880000
H        0.14600000      -2.29700000       2.50670000
H       -1.85240000      -2.70460000       0.61130000
H       -3.13540000      -1.39730000       2.56740000
H       -3.25230000       0.77320000       0.66040000
H       -1.79430000      -0.80320000      -0.99390000
