17
Properties=species:S:1:pos:R:3 gdb_66416=T pbc="F F F"
C        0.00880000       1.58850000       0.01950000
C        0.07120000       0.08830000       0.00770000
C        0.56350000      -0.94750000      -1.02780000
C        1.18670000      -1.83400000       0.05940000
C        0.69850000      -0.76990000       1.08010000
O        0.93470000      -0.57440000       2.23770000
C       -0.91430000      -0.76160000      -0.82050000
C       -1.83370000      -1.76240000      -0.21250000
O       -2.96140000      -1.93980000      -0.60150000
H        0.96820000       2.01340000       0.33080000
H       -0.23820000       1.98260000      -0.97050000
H       -0.75400000       1.93940000       0.72170000
H        1.01060000      -0.73670000      -1.99090000
H        0.83740000      -2.86400000       0.15800000
H        2.28060000      -1.83330000       0.03360000
H       -1.40490000      -0.17980000      -1.59670000
H       -1.42990000      -2.33640000       0.64880000
