17
Properties=species:S:1:pos:R:3 gdb_48569=T pbc="F F F"
O       -0.03710000       0.01060000       0.00330000
C        0.04650000       1.21370000       0.00770000
C        1.33040000       1.96550000      -0.00010000
C        2.76900000       1.38930000      -0.01910000
C        2.94390000       2.94800000      -0.00890000
C        1.79600000       3.00680000      -1.07220000
C        1.81800000       2.99010000       1.07850000
C        4.17200000       3.68810000      -0.01550000
C        5.20230000       4.30910000      -0.02110000
H       -0.86560000       1.85530000       0.01820000
H        3.09680000       0.86070000       0.87790000
H        3.07840000       0.87480000      -0.93080000
H        2.03010000       2.60820000      -2.06180000
H        1.23840000       3.94450000      -1.12850000
H        1.26160000       3.92660000       1.16060000
H        2.07200000       2.57600000       2.05670000
H        6.11270000       4.85560000      -0.02600000
