19
Properties=species:S:1:pos:R:3 gdb_111046=T pbc="F F F"
O        0.50270000       0.33070000       0.93060000
C       -0.03030000       0.20340000      -0.37270000
C       -1.41140000      -0.43470000      -0.33450000
C       -2.16240000      -0.97490000      -1.59650000
C       -1.18930000      -2.18940000      -1.62740000
C       -1.57700000      -1.97650000      -0.11780000
C       -3.04520000      -1.81520000      -0.62380000
C       -1.06470000      -2.78930000       1.01510000
O       -0.20810000      -2.41210000       1.78530000
H        0.45610000      -0.54440000       1.34600000
H       -0.11500000       1.22050000      -0.77390000
H        0.65680000      -0.34120000      -1.03850000
H       -2.04590000       0.15480000       0.33660000
H       -2.51030000      -0.39490000      -2.45150000
H       -1.56870000      -3.10340000      -2.09110000
H       -0.14910000      -2.01130000      -1.89800000
H       -3.72160000      -1.26280000       0.03310000
H       -3.52030000      -2.70490000      -1.04460000
H       -1.49830000      -3.80780000       1.11690000
