19
Properties=species:S:1:pos:R:3 gdb_56861=T pbc="F F F"
C        0.06970000       1.47730000      -0.14290000
C       -0.00700000      -0.05180000       0.03660000
C        0.75040000      -0.48230000       1.21180000
C        1.35610000      -0.82800000       2.19110000
C       -1.46180000      -0.54170000       0.12060000
C       -2.32200000      -0.42290000      -1.17890000
C       -2.71770000      -1.89730000      -0.98620000
O       -3.55090000      -2.60010000      -1.47820000
C       -1.69260000      -2.08520000       0.14180000
H        1.10750000       1.80690000      -0.23420000
H       -0.47140000       1.78430000      -1.04300000
H       -0.37330000       1.98790000       0.71750000
H        0.44750000      -0.52210000      -0.84860000
H        1.89940000      -1.13800000       3.04930000
H       -1.95450000      -0.05860000       0.96880000
H       -3.14380000       0.29700000      -1.19430000
H       -1.72180000      -0.28260000      -2.08600000
H       -0.81830000      -2.65720000      -0.18980000
H       -2.06700000      -2.53760000       1.06280000
