19
Properties=species:S:1:pos:R:3 gdb_60080=T pbc="F F F"
C       -0.01060000       1.59540000       0.15740000
C       -0.05580000       0.06740000       0.09270000
O        0.28470000      -0.40680000      -1.20140000
C        0.94700000      -0.57330000       1.05860000
C        0.79770000      -2.08150000       1.20550000
C        0.96920000      -2.69760000       2.55900000
N       -0.36170000      -2.62510000       1.95170000
C        1.19230000      -2.89340000       0.06840000
N        1.55380000      -3.57350000      -0.79310000
H        0.99320000       1.95740000      -0.08580000
H       -0.71120000       2.02930000      -0.56380000
H       -0.28590000       1.96190000       1.15210000
H       -1.06930000      -0.27110000       0.36680000
H       -0.42560000      -0.18660000      -1.81140000
H        1.95940000      -0.33430000       0.71330000
H        0.82530000      -0.12280000       2.05000000
H        1.37900000      -3.69910000       2.64120000
H        1.22170000      -2.02570000       3.37520000
H       -0.88990000      -1.84950000       2.34620000
