17
Properties=species:S:1:pos:R:3 gdb_49568=T pbc="F F F"
O       -0.04320000      -0.04380000      -0.02330000
C        0.00610000       1.15950000      -0.09840000
C        1.28070000       1.95860000      -0.01100000
C        1.33740000       3.24870000      -0.86920000
O        0.25790000       4.09010000      -0.45580000
C        1.46750000       4.10230000       0.32130000
C        1.42850000       2.89480000       1.23440000
C        0.81950000       2.77050000       2.59880000
C        2.31430000       2.63810000       2.41620000
H       -0.91070000       1.77380000      -0.21730000
H        2.14540000       1.30400000      -0.14070000
H        1.71200000       3.36570000      -1.87880000
H        1.95540000       5.05930000       0.46460000
H        0.43100000       3.66750000       3.06910000
H        0.25690000       1.86970000       2.82060000
H        2.75940000       1.65370000       2.51560000
H        2.94680000       3.45090000       2.75940000
