21
Properties=species:S:1:pos:R:3 gdb_91369=T pbc="F F F"
C       -0.07620000       1.57100000       0.06790000
C        0.06050000       0.04550000       0.06060000
C        0.74460000      -0.51320000      -1.23540000
C        1.49560000      -1.77260000      -0.75730000
C        3.05150000      -1.97140000      -0.77440000
C        2.98940000      -2.21680000       0.78970000
O        3.93890000      -1.62300000       1.63570000
C        1.65330000      -1.53350000       0.72270000
C        0.96420000      -0.49290000       1.17400000
H        0.90720000       2.05120000       0.00950000
H       -0.67040000       1.91570000      -0.78540000
H       -0.56860000       1.92420000       0.98020000
H       -0.94990000      -0.38230000       0.15200000
H        0.02700000      -0.70300000      -2.03970000
H        1.45950000       0.23360000      -1.60270000
H        0.97770000      -2.70220000      -1.02020000
H        3.46210000      -2.77620000      -1.39060000
H        3.57730000      -1.03450000      -0.97490000
H        2.89270000      -3.29560000       0.98790000
H        4.70680000      -2.20080000       1.68230000
H        1.06600000      -0.00600000       2.13710000
