14
Properties=species:S:1:pos:R:3 gdb_27445=T pbc="F F F"
N        0.10820000       1.30630000      -0.26750000
C       -0.09230000      -0.03140000      -0.05030000
N       -1.22140000      -0.57370000      -0.33390000
C       -1.44080000      -1.91750000      -0.00320000
N       -2.41330000      -2.26010000       0.73400000
N       -0.59510000      -2.84390000      -0.67070000
C        0.66110000      -2.79160000      -0.45910000
N        1.37710000      -1.95970000       0.41010000
C        1.04310000      -0.74040000       0.59950000
H        1.04690000       1.64950000      -0.38700000
H       -0.60780000       1.77340000      -0.80370000
H       -2.45270000      -3.27940000       0.78670000
H        1.29940000      -3.52360000      -0.95370000
H        1.66600000      -0.14810000       1.27570000
