21
Properties=species:S:1:pos:R:3 gdb_120797=T pbc="F F F"
C        0.32600000       1.35020000      -0.25870000
O        0.40100000      -0.05100000      -0.16510000
C        0.43270000      -0.50810000       1.17220000
C        0.45780000      -2.01350000       1.15800000
C        1.76000000      -2.76510000       1.01930000
C        0.98630000      -2.84050000       2.30910000
C        1.52890000      -2.22350000       3.59400000
C        2.38130000      -3.14810000       4.33650000
C        3.07260000      -3.92480000       4.93930000
H        1.19800000       1.84030000       0.20420000
H        0.30110000       1.60720000      -1.32050000
H       -0.58210000       1.74650000       0.22410000
H        1.31680000      -0.09870000       1.68920000
H       -0.45510000      -0.14000000       1.71670000
H       -0.39710000      -2.43780000       0.63860000
H        1.79820000      -3.63640000       0.37550000
H        2.67130000      -2.17450000       1.01980000
H        0.45200000      -3.76920000       2.48750000
H        2.09930000      -1.31480000       3.36920000
H        0.69580000      -1.90790000       4.23650000
H        3.68860000      -4.60430000       5.47390000
