15
Properties=species:S:1:pos:R:3 gdb_56127=T pbc="F F F"
C       -0.06030000       1.24710000       0.27450000
C       -0.17910000      -0.24660000       0.06050000
O        0.64160000      -1.04340000       0.43690000
C       -1.44750000      -0.69980000      -0.67490000
O       -1.49450000      -2.11450000      -0.80090000
C       -1.86120000      -2.78200000       0.31310000
O       -2.23950000      -2.28390000       1.33540000
C       -1.74200000      -4.28910000       0.04850000
O       -2.08080000      -5.10070000       0.86110000
H        0.93510000       1.48620000       0.64940000
H       -0.25660000       1.80000000      -0.65040000
H       -0.80790000       1.56980000       1.00860000
H       -2.33040000      -0.32940000      -0.14330000
H       -1.44970000      -0.29920000      -1.69260000
H       -1.32100000      -4.54970000      -0.94240000
