18
Properties=species:S:1:pos:R:3 gdb_85000=T pbc="F F F"
C        0.06460000       1.57150000       0.01480000
C       -0.00530000       0.07590000       0.01970000
C       -1.11100000      -0.71260000       0.00810000
N       -2.42180000      -0.35490000      -0.01190000
C       -0.78720000      -2.19520000       0.08160000
O       -1.53020000      -2.95130000      -0.87230000
C        0.74230000      -2.23840000      -0.04550000
C        1.18960000      -0.76680000       0.03010000
O        2.34540000      -0.39360000       0.07090000
H        1.11420000       1.87620000       0.03130000
H       -0.40040000       2.00820000      -0.87890000
H       -0.43230000       2.01100000       0.88830000
H       -2.66620000       0.58940000      -0.26400000
H       -3.06810000      -1.06910000      -0.31340000
H       -1.11920000      -2.59160000       1.04800000
H       -1.20590000      -2.71470000      -1.74910000
H        1.23220000      -2.83500000       0.72770000
H        1.04210000      -2.66240000      -1.01090000
