18
Properties=species:S:1:pos:R:3 gdb_128218=T pbc="F F F"
C       -0.22820000       1.40600000      -0.00600000
N        0.19000000       0.02610000       0.15650000
C        0.70090000      -0.62030000      -0.97100000
C        1.21030000      -0.10420000      -2.14910000
N        1.60070000      -1.16170000      -2.92020000
C        2.35320000      -1.12460000      -4.14860000
N        1.38850000      -2.34630000      -2.29770000
C        0.84360000      -2.01840000      -1.13880000
O        0.43480000      -2.93720000      -0.23000000
H        0.64570000       2.03470000      -0.21290000
H       -0.95180000       1.55780000      -0.82500000
H       -0.67520000       1.76020000       0.92590000
H       -0.49680000      -0.54450000       0.63060000
H        1.31610000       0.91120000      -2.49420000
H        3.43520000      -1.17460000      -3.97140000
H        2.06100000      -1.97460000      -4.76860000
H        2.12510000      -0.19820000      -4.68160000
H        0.61540000      -3.80720000      -0.60630000
