17
Properties=species:S:1:pos:R:3 gdb_25771=T pbc="F F F"
C       -0.01360000       1.48340000      -0.07730000
C        0.00150000      -0.02450000       0.00360000
O        1.02610000      -0.68470000       0.04670000
C       -1.30060000      -0.70670000       0.03020000
N       -2.51300000      -0.17510000      -0.00750000
C       -3.38660000      -1.22690000       0.04230000
C       -4.86830000      -1.03130000       0.02050000
C       -2.68000000      -2.41530000       0.11130000
N       -1.36180000      -2.06720000       0.10270000
H        1.01100000       1.85590000      -0.08970000
H       -0.54760000       1.80750000      -0.97590000
H       -0.56040000       1.90120000       0.77360000
H       -5.18280000      -0.51390000      -0.89180000
H       -5.39260000      -1.98940000       0.06770000
H       -5.19620000      -0.41980000       0.86760000
H       -3.00510000      -3.44170000       0.16390000
H       -0.54600000      -2.65800000       0.14060000
