18
Properties=species:S:1:pos:R:3 gdb_78570=T pbc="F F F"
C        0.19510000       1.63830000      -0.00680000
C        0.07410000       0.12160000       0.01190000
C        0.69880000      -0.73540000      -1.10070000
N        2.17700000      -0.93430000      -0.82320000
C        2.36870000      -0.35430000       0.50150000
O        3.37350000       0.05500000       0.99390000
C        0.97200000      -0.71580000       0.97840000
C        1.08860000      -1.80260000      -0.17310000
C        1.12730000      -3.29060000      -0.18140000
H        1.23210000       1.95980000      -0.14340000
H       -0.39990000       2.06280000      -0.82220000
H       -0.16870000       2.07040000       0.93130000
H       -0.96990000      -0.18600000       0.13390000
H        0.42640000      -0.79340000      -2.14760000
H        0.72990000      -0.85310000       2.02910000
H        0.16060000      -3.70860000       0.11810000
H        1.36610000      -3.65350000      -1.18480000
H        1.88960000      -3.66750000       0.50810000
