15
Properties=species:S:1:pos:R:3 gdb_2060=T pbc="F F F"
O        0.02180000      -0.04610000       0.12010000
C       -0.01000000       1.16210000      -0.00200000
C       -1.32140000       1.93950000      -0.06290000
C       -1.20730000       3.20320000      -0.92470000
C       -0.04930000       4.09220000      -0.45240000
C        1.20960000       3.30120000      -0.23020000
C        1.22680000       1.97340000      -0.05230000
H       -2.10500000       1.26350000      -0.41410000
H       -1.57800000       2.21650000       0.97040000
H       -1.02600000       2.91160000      -1.96660000
H       -2.14830000       3.76220000      -0.91180000
H        0.14200000       4.89490000      -1.17410000
H       -0.31700000       4.60200000       0.48660000
H        2.14580000       3.85600000      -0.21460000
H        2.15360000       1.42490000       0.08500000
