18
Properties=species:S:1:pos:R:3 gdb_30025=T pbc="F F F"
C       -0.06630000       1.56590000       0.04630000
C        0.00250000       0.03450000       0.01170000
C        0.79270000      -0.52390000      -1.16120000
C        1.83230000      -1.25850000      -0.72700000
C        1.83180000      -1.27620000       0.72250000
C        2.48360000      -1.74610000       1.84630000
C        1.76220000      -1.24780000       2.96800000
C        0.69850000      -0.49600000       2.50060000
N        0.75350000      -0.52210000       1.13540000
H        0.94010000       1.99240000       0.03950000
H       -0.61190000       1.93990000      -0.82530000
H       -0.58560000       1.91090000       0.94580000
H       -1.01960000      -0.37060000       0.01280000
H        0.51920000      -0.31840000      -2.18660000
H        2.56210000      -1.76580000      -1.34280000
H        3.36350000      -2.36990000       1.86700000
H        1.99280000      -1.42300000       4.00810000
H       -0.07490000       0.03660000       3.03070000
