19
Properties=species:S:1:pos:R:3 gdb_108536=T pbc="F F F"
C        0.08900000       1.33660000      -0.11210000
O       -0.13010000      -0.03530000       0.15360000
C        0.58670000      -0.54650000       1.21630000
C        0.25880000      -0.09200000       2.64250000
C        1.22450000      -1.00630000       3.45000000
C        1.88830000      -1.77710000       2.31240000
C        0.84900000      -2.08080000       1.19670000
O        1.87550000      -1.93610000       0.15680000
C        2.13310000      -0.84010000       1.09780000
H        1.15100000       1.54690000      -0.30160000
H       -0.48340000       1.57940000      -1.00970000
H       -0.25520000       1.97950000       0.71010000
H        0.46110000       0.97160000       2.79790000
H       -0.79550000      -0.26480000       2.87870000
H        1.95020000      -0.43640000       4.03780000
H        0.69390000      -1.66900000       4.14000000
H        2.63970000      -2.53670000       2.51890000
H        0.13330000      -2.89830000       1.10320000
H        2.97120000      -0.17290000       0.89180000
