19
Properties=species:S:1:pos:R:3 gdb_86250=T pbc="F F F"
O       -0.13830000       1.36970000      -0.17920000
C       -0.09330000      -0.03550000      -0.01100000
C        0.65520000      -0.51130000       1.24560000
C        0.12580000      -1.93620000       1.45830000
O        0.20920000      -2.43190000       2.78260000
C       -1.37640000      -1.83510000       1.06020000
C       -1.52250000      -0.56940000       0.19150000
C       -1.84070000      -3.12080000       0.41360000
O       -2.37970000      -3.20900000      -0.66030000
H        0.74530000       1.67580000      -0.40580000
H        0.35270000      -0.51060000      -0.89960000
H        1.74610000      -0.46640000       1.15260000
H        0.35220000       0.11100000       2.09570000
H        0.64380000      -2.62360000       0.76850000
H        1.13620000      -2.58500000       2.99220000
H       -1.92560000      -1.74870000       2.00650000
H       -2.09710000       0.20140000       0.71210000
H       -2.02840000      -0.78920000      -0.75010000
H       -1.62590000      -4.02810000       1.02300000
