20
Properties=species:S:1:pos:R:3 gdb_10395=T pbc="F F F"
C        0.07610000       1.57900000      -0.07870000
C       -0.03610000       0.06500000       0.14010000
C       -1.45550000      -0.51050000       0.05070000
C       -2.38220000       0.08070000       1.10550000
O       -3.65020000      -0.55210000       1.01190000
C       -2.02450000      -0.57500000      -1.39180000
O       -1.84010000      -2.00270000      -1.44970000
C       -1.47000000      -2.05810000      -0.05760000
H        1.12590000       1.88550000      -0.11260000
H       -0.38560000       1.88140000      -1.02500000
H       -0.40340000       2.14970000       0.72240000
H        0.57820000      -0.45080000      -0.60770000
H        0.39260000      -0.19690000       1.11730000
H       -1.93670000      -0.06950000       2.10360000
H       -2.47790000       1.16600000       0.95030000
H       -4.24390000      -0.13700000       1.64350000
H       -3.08140000      -0.29650000      -1.47400000
H       -1.44590000      -0.05440000      -2.16570000
H       -0.50380000      -2.55650000       0.09310000
H       -2.23850000      -2.54860000       0.54960000
