16
Properties=species:S:1:pos:R:3 gdb_55499=T pbc="F F F"
C        0.32970000       1.35840000      -0.16050000
C       -0.01080000      -0.09740000      -0.05820000
N       -0.00480000      -0.71480000       1.11020000
H       -0.21930000      -1.72940000       1.08890000
H        0.20780000      -0.21410000       1.95610000
N       -0.29420000      -0.78150000      -1.14670000
C       -0.59280000      -2.15170000      -1.23820000
N       -0.62900000      -2.91520000      -0.22270000
C       -0.84950000      -2.49740000      -2.74000000
O       -1.12270000      -3.67220000      -2.96270000
O       -0.72350000      -1.47230000      -3.46360000
H        1.41530000       1.47470000      -0.24720000
H       -0.13240000       1.79820000      -1.04510000
H       -0.00370000       1.90010000       0.72760000
H       -0.34800000      -0.45560000      -2.15160000
H       -0.86750000      -3.85120000      -0.56660000
