18
Properties=species:S:1:pos:R:3 gdb_71412=T pbc="F F F"
O       -0.02580000       1.32770000       0.14320000
C        0.04100000      -0.03780000      -0.01880000
C       -0.60930000      -0.91900000      -1.07380000
N       -0.41200000      -2.09510000      -0.12600000
C       -0.26200000      -1.06450000       1.01910000
C        1.18020000      -0.89960000       0.60370000
C        1.08500000      -2.21680000      -0.10640000
C        1.74820000      -3.51050000       0.22060000
C        1.89110000      -2.89060000      -1.16460000
H        0.67760000       1.73290000      -0.37630000
H       -1.67760000      -0.71520000      -1.18420000
H       -0.14070000      -1.04570000      -2.05570000
H       -0.78890000      -1.07900000       1.96200000
H        1.99130000      -0.43920000       1.15490000
H        2.61020000      -3.50150000       0.87980000
H        1.11080000      -4.38310000       0.31290000
H        1.35350000      -3.36470000      -1.97970000
H        2.84900000      -2.46410000      -1.44450000
