15
Properties=species:S:1:pos:R:3 gdb_2210=T pbc="F F F"
O        0.55900000       0.84210000      -0.80970000
C        0.10450000      -0.24610000      -0.06550000
C        0.11860000      -0.14850000       1.49530000
C       -1.30610000      -0.75900000       1.50370000
O       -2.31600000      -0.12020000       2.26680000
C       -1.44430000      -0.42840000      -0.00870000
O       -2.06400000       0.82810000      -0.19870000
H       -0.17070000       1.47930000      -0.78830000
H        0.61760000      -1.14430000      -0.42110000
H        0.90440000      -0.67640000       2.03930000
H        0.10030000       0.90030000       1.80650000
H       -1.30340000      -1.83910000       1.69250000
H       -1.94680000       0.12950000       3.11920000
H       -1.90190000      -1.18120000      -0.65940000
H       -2.52750000       1.02020000       0.63070000
