9
Properties=species:S:1:pos:R:3 gdb_14563=T pbc="F F F"
C        0.08570000      -6.31480000      -0.03590000
C        0.07100000      -5.10540000      -0.02610000
C        0.05440000      -3.75570000      -0.01660000
C        0.03780000      -2.53560000      -0.01000000
C        0.01920000      -1.19330000      -0.00310000
C        0.00170000       0.02500000       0.00240000
C       -0.01710000       1.38210000       0.00920000
N       -0.03350000       2.54630000       0.01440000
H        0.10000000      -7.37720000      -0.04190000
