21
Properties=species:S:1:pos:R:3 gdb_88957=T pbc="F F F"
C       -0.06620000       1.44430000      -0.71730000
C       -0.00770000       0.02900000      -0.18500000
C       -1.31280000      -0.74860000      -0.12210000
C       -2.29930000      -0.16560000       0.87190000
C       -3.34690000       0.85040000       0.44700000
C       -3.74700000      -0.55470000       0.82220000
O       -4.11940000      -1.45560000      -0.18250000
C        1.25920000      -0.71490000      -0.25680000
O        0.82610000      -0.13700000       0.97730000
H        0.92530000       1.90310000      -0.69410000
H       -0.43200000       1.45490000      -1.75000000
H       -0.74270000       2.05810000      -0.11560000
H       -1.76820000      -0.79600000      -1.11660000
H       -1.08470000      -1.78040000       0.16750000
H       -1.88420000      -0.03470000       1.86730000
H       -3.59670000       1.66780000       1.11510000
H       -3.39320000       1.09600000      -0.60940000
H       -4.26050000      -0.69970000       1.77270000
H       -4.99060000      -1.19960000      -0.50210000
H        1.24710000      -1.80390000      -0.29360000
H        2.13530000      -0.24950000      -0.70800000
