19
Properties=species:S:1:pos:R:3 gdb_86595=T pbc="F F F"
C        0.46260000       1.41740000       0.66640000
C        0.14330000       0.04220000       0.10040000
N        1.08450000      -0.48190000      -0.93500000
C        1.21500000      -1.81080000      -0.26420000
C        2.61460000      -2.34830000      -0.07660000
C        3.49390000      -1.85360000       1.00810000
N        2.91320000      -3.20690000       1.08180000
C        0.49260000      -1.19290000       0.94350000
O        0.33760000      -1.51720000       2.08590000
H        1.51210000       1.47270000       0.96690000
H        0.27990000       2.19550000      -0.08090000
H       -0.16650000       1.62170000       1.53830000
H       -0.91530000      -0.00940000      -0.20060000
H        0.68660000      -0.52960000      -1.86600000
H        0.58080000      -2.59320000      -0.71210000
H        3.08350000      -2.68420000      -1.00020000
H        4.56870000      -1.82180000       0.85520000
H        3.10980000      -1.09010000       1.67880000
H        2.12370000      -3.18760000       1.72600000
