17
Properties=species:S:1:pos:R:3 gdb_86131=T pbc="F F F"
C       -0.03770000       1.40490000       0.09250000
N        0.00580000      -0.03830000       0.06820000
C       -1.18090000      -0.83120000      -0.24220000
C       -0.72450000      -2.27400000       0.03620000
O       -1.34820000      -3.23730000      -0.76460000
C        0.77830000      -2.18460000      -0.19410000
O        1.48910000      -3.10610000      -0.50690000
C        1.18220000      -0.73720000      -0.04210000
N        2.35750000      -0.24030000      -0.03140000
H        0.91920000       1.77160000       0.46630000
H       -0.20460000       1.82660000      -0.90900000
H       -0.84590000       1.74410000       0.74920000
H       -2.02180000      -0.51710000       0.38330000
H       -1.48360000      -0.74290000      -1.29570000
H       -0.86720000      -2.48480000       1.11140000
H       -0.67840000      -3.90950000      -0.95340000
H        3.03500000      -1.00090000      -0.10090000
