19
Properties=species:S:1:pos:R:3 gdb_116528=T pbc="F F F"
C       -0.10580000       1.59580000      -0.32960000
C       -0.14090000       0.15090000       0.19130000
N       -1.48040000      -0.41110000       0.12640000
C       -1.85180000      -1.01100000      -0.94070000
N       -1.15510000      -1.26670000      -2.09230000
C       -3.25090000      -1.57490000      -0.96300000
O       -3.69250000      -2.10450000      -1.96610000
C       -4.10410000      -1.47330000       0.28460000
O       -5.37280000      -2.02460000       0.07190000
H        0.89440000       2.02340000      -0.21110000
H       -0.37590000       1.64770000      -1.38970000
H       -0.81640000       2.21510000       0.22450000
H        0.59470000      -0.46320000      -0.35380000
H        0.16760000       0.14700000       1.24210000
H       -0.35150000      -0.71270000      -2.32930000
H       -1.70300000      -1.63790000      -2.85390000
H       -3.57080000      -1.97890000       1.10350000
H       -4.16420000      -0.41610000       0.57820000
H       -5.36450000      -2.36070000      -0.83700000
