18
Properties=species:S:1:pos:R:3 gdb_42943=T pbc="F F F"
O       -0.03400000      -0.01170000      -0.08420000
C       -0.01200000       1.19390000       0.00430000
C       -1.27580000       2.02440000      -0.02640000
N       -1.56970000       2.86820000       1.16720000
C       -1.07960000       3.50190000      -0.06080000
C        0.37780000       3.95790000      -0.05740000
C        1.18050000       3.19300000       1.02950000
C        1.26890000       2.01300000       0.01440000
C        1.15090000       3.10590000      -1.10740000
H       -2.11430000       1.55450000      -0.53090000
H       -2.57910000       2.97140000       1.23890000
H       -1.77380000       4.09360000      -0.65190000
H        0.46350000       5.04580000      -0.09740000
H        2.16660000       3.64190000       1.17070000
H        0.70250000       3.01850000       1.99190000
H        2.13400000       1.34980000       0.02430000
H        0.63920000       2.84230000      -2.03740000
H        2.13400000       3.52410000      -1.33730000
