16
Properties=species:S:1:pos:R:3 gdb_130065=T pbc="F F F"
N        0.07680000       1.38400000       0.08350000
C        0.09120000      -0.00670000       0.02180000
N       -1.03230000      -0.69060000      -0.18670000
N       -0.65610000      -1.99800000      -0.11910000
C       -1.66750000      -3.01820000      -0.19330000
C       -2.48150000      -3.14060000       1.09640000
O       -3.21140000      -4.06770000       1.32110000
C        0.66710000      -2.13490000       0.12970000
C        1.19910000      -0.86750000       0.22340000
H        0.90100000       1.81540000      -0.31070000
H       -0.76320000       1.77200000      -0.32550000
H       -2.35950000      -2.77790000      -1.00850000
H       -1.20670000      -3.98360000      -0.41790000
H       -2.34780000      -2.29410000       1.80380000
H        1.12520000      -3.10830000       0.21530000
H        2.22630000      -0.59960000       0.40970000
