20
Properties=species:S:1:pos:R:3 gdb_40531=T pbc="F F F"
C       -0.09500000       1.45280000      -0.14790000
C        1.29240000       0.94700000       0.11640000
C        0.13110000      -0.03220000       0.08160000
C       -0.35180000      -0.71550000       1.29530000
C       -0.75220000      -1.99400000       1.36430000
C       -1.09120000      -2.38360000       2.76010000
N        0.08060000      -2.28130000       3.68570000
C       -0.88630000      -1.16630000       3.58840000
C       -0.43980000      -0.04170000       2.66160000
H       -0.58740000       2.01770000       0.63560000
H       -0.35220000       1.77100000      -1.15200000
H        1.99900000       0.91000000      -0.70520000
H        1.74210000       1.16670000       1.07790000
H        0.08280000      -0.64970000      -0.81050000
H       -0.77990000      -2.68270000       0.52790000
H       -1.85540000      -3.12320000       2.97460000
H       -0.13400000      -2.80540000       4.53360000
H       -1.50740000      -0.93870000       4.44800000
H        0.52060000       0.38050000       2.97940000
H       -1.16800000       0.78020000       2.65760000
