18
Properties=species:S:1:pos:R:3 gdb_98022=T pbc="F F F"
C        0.03350000       1.42360000      -0.24400000
N       -0.11350000      -0.01790000      -0.24850000
C       -1.24400000      -0.64160000       0.19550000
O       -2.22460000      -0.05860000       0.62420000
C       -1.17280000      -2.09420000       0.10570000
C       -1.15440000      -3.29930000       0.06070000
C       -1.15010000      -4.76430000      -0.03300000
C       -2.56660000      -5.31760000      -0.24130000
O       -0.24500000      -5.22570000      -1.03130000
H        0.85180000       1.73950000       0.41280000
H        0.22570000       1.80560000      -1.25270000
H       -0.90160000       1.84530000       0.12580000
H        0.64950000      -0.59570000      -0.56090000
H       -0.74890000      -5.16590000       0.90560000
H       -2.99790000      -4.92800000      -1.16920000
H       -2.52310000      -6.40800000      -0.30180000
H       -3.22280000      -5.02780000       0.58390000
H       -0.53190000      -4.85730000      -1.87470000
