19
Properties=species:S:1:pos:R:3 gdb_94014=T pbc="F F F"
C        0.08820000       1.53920000      -0.04170000
C        0.02930000       0.01510000       0.02270000
O        0.59900000      -0.47060000      -1.18680000
C        0.86780000      -1.85960000      -1.16920000
C        1.95730000      -2.19910000      -0.13840000
C        3.32140000      -1.69740000      -0.59910000
O        4.34590000      -2.32300000      -0.51150000
C        1.60960000      -1.53290000       1.17360000
C        0.72730000      -0.53780000       1.23870000
H        1.12770000       1.87850000      -0.06110000
H       -0.41200000       1.89290000      -0.94690000
H       -0.40870000       1.97970000       0.82760000
H       -1.03290000      -0.29240000       0.06460000
H       -0.04150000      -2.43430000      -0.93260000
H        1.17870000      -2.12230000      -2.18500000
H        2.03810000      -3.28330000      -0.00400000
H        3.29640000      -0.66720000      -1.01740000
H        2.11670000      -1.89270000       2.06380000
H        0.46000000      -0.09080000       2.19280000
