14
Properties=species:S:1:pos:R:3 gdb_48371=T pbc="F F F"
O       -0.28800000       0.37160000      -0.70580000
C        0.08050000       1.09950000       0.17760000
C        1.32890000       1.93360000       0.08560000
C        2.33400000       1.57110000      -0.99770000
C        1.52950000       2.81220000      -1.20520000
C        0.49860000       2.90320000      -2.19170000
C       -0.35150000       3.01980000      -3.03270000
C        1.79210000       2.50650000       1.31830000
N        2.14740000       2.95990000       2.32170000
H       -0.48090000       1.21430000       1.12560000
H        3.38340000       1.67620000      -0.75250000
H        2.05130000       0.70030000      -1.57760000
H        2.03450000       3.74700000      -0.98030000
H       -1.10570000       3.10660000      -3.77570000
