17
Properties=species:S:1:pos:R:3 gdb_98808=T pbc="F F F"
C       -0.07670000       1.43040000      -0.32370000
N       -0.26270000      -0.00580000      -0.40300000
C       -1.29420000      -0.64100000       0.21290000
O       -2.14850000      -0.10360000       0.88850000
C       -1.26070000      -2.16390000       0.02770000
N       -2.56590000      -2.82460000      -0.20660000
C       -2.03880000      -3.64570000      -1.32770000
C       -0.78760000      -2.76230000      -1.30410000
O        0.13740000      -2.54700000      -2.03390000
H        0.93110000       1.67660000       0.02720000
H       -0.23510000       1.90980000      -1.29640000
H       -0.80990000       1.81880000       0.38410000
H        0.33190000      -0.54950000      -1.01330000
H       -0.67020000      -2.58180000       0.85930000
H       -2.92410000      -3.34730000       0.58200000
H       -1.79840000      -4.69250000      -1.09120000
H       -2.64080000      -3.61960000      -2.24230000
