19
Properties=species:S:1:pos:R:3 gdb_107686=T pbc="F F F"
O        0.08450000       1.30610000      -0.44330000
C        0.05240000       0.03680000       0.18760000
C       -1.35530000      -0.51520000       0.23360000
C       -2.37910000       0.25690000       1.04210000
C       -3.72880000      -0.46330000       1.03420000
O       -3.57690000      -1.81110000       1.45430000
C       -2.86200000      -2.60410000       0.52690000
C       -1.61420000      -1.93920000      -0.03010000
O       -1.82520000      -0.95660000      -1.05920000
H       -0.26190000       1.17830000      -1.33410000
H        0.70820000      -0.68400000      -0.32290000
H        0.43770000       0.18760000       1.20180000
H       -2.01720000       0.34170000       2.07380000
H       -2.47210000       1.27240000       0.64260000
H       -4.41980000       0.00060000       1.74270000
H       -4.17650000      -0.41820000       0.03070000
H       -2.58110000      -3.51680000       1.06230000
H       -3.50640000      -2.89260000      -0.32040000
H       -0.77450000      -2.60630000      -0.22840000
