20
Properties=species:S:1:pos:R:3 gdb_22830=T pbc="F F F"
O        0.01720000       1.33080000      -0.00960000
N        0.06080000      -0.06800000      -0.02790000
C       -1.08520000      -0.62450000       0.01000000
C       -2.43150000       0.04780000       0.04610000
C       -3.34270000      -0.50480000      -1.07070000
C       -3.39510000      -2.03850000      -1.05050000
C       -1.98870000      -2.64360000      -1.14680000
C       -1.07860000      -2.14100000      -0.01170000
O        0.21200000      -2.68700000      -0.13660000
H        0.95000000       1.56530000      -0.05510000
H       -2.89440000      -0.16280000       1.02040000
H       -2.31420000       1.12910000      -0.03080000
H       -4.34650000      -0.08060000      -0.96270000
H       -2.95980000      -0.16720000      -2.04200000
H       -3.87800000      -2.37520000      -0.12250000
H       -4.01820000      -2.40440000      -1.87340000
H       -2.02210000      -3.73690000      -1.10750000
H       -1.52090000      -2.37020000      -2.10090000
H       -1.52370000      -2.47330000       0.94480000
H        0.82440000      -1.93810000      -0.11130000
