13
Properties=species:S:1:pos:R:3 gdb_4264=T pbc="F F F"
C        0.07090000       1.50670000       0.01520000
C       -0.05690000       0.02180000       0.00510000
C       -1.17470000      -0.70530000      -0.15100000
C       -1.13360000      -2.16950000      -0.13650000
O       -2.10670000      -2.87540000      -0.27120000
N        0.16280000      -2.73700000       0.05170000
C        1.15250000      -1.95770000       0.18910000
O        1.15080000      -0.59870000       0.18160000
H        0.74580000       1.83850000      -0.78090000
H       -0.90430000       1.97390000      -0.12740000
H        0.49500000       1.84820000       0.96540000
H       -2.13150000      -0.21870000      -0.29080000
H        2.16550000      -2.32380000       0.33590000
