15
Properties=species:S:1:pos:R:3 gdb_2767=T pbc="F F F"
C       -0.28960000       1.53540000      -0.06030000
C       -0.00130000       0.04130000      -0.03440000
C        1.29790000      -0.45820000      -0.70770000
O        1.72070000      -1.13890000       0.49200000
C        0.62580000      -0.61640000       1.24350000
C        1.02950000       0.34870000       2.33760000
O        2.13710000       0.78700000       2.49870000
H        0.57050000       2.11650000       0.28720000
H       -0.51890000       1.85700000      -1.08170000
H       -1.15040000       1.79290000       0.56560000
H       -0.87780000      -0.51980000      -0.36680000
H        1.17920000      -1.14790000      -1.55060000
H        1.99830000       0.33900000      -0.98810000
H        0.01220000      -1.40930000       1.69790000
H        0.17940000       0.64420000       2.99900000
