21
Properties=species:S:1:pos:R:3 gdb_68485=T pbc="F F F"
C       -0.04170000       1.56250000       0.02120000
C        0.05760000       0.05100000      -0.04060000
C        0.77040000      -0.60510000      -1.24430000
C       -0.50300000      -1.47260000      -1.32880000
C       -0.39260000      -2.86230000      -0.69540000
C       -0.20150000      -2.79250000       0.82760000
O        0.84990000      -1.92290000       1.22800000
C        0.49650000      -0.55430000       1.29910000
O       -1.20980000      -0.55360000      -0.45260000
H        0.94340000       2.01080000       0.18880000
H       -0.44810000       1.95070000      -0.91620000
H       -0.70410000       1.87730000       0.83500000
H        0.87720000       0.07660000      -2.09040000
H        1.71280000      -1.11510000      -1.04470000
H       -0.98180000      -1.52540000      -2.31210000
H       -1.30230000      -3.44230000      -0.89510000
H        0.44100000      -3.40010000      -1.16380000
H       -1.14330000      -2.47890000       1.29730000
H        0.05970000      -3.78320000       1.21350000
H        1.39040000      -0.03880000       1.66750000
H       -0.31730000      -0.40090000       2.02690000
