20
Properties=species:S:1:pos:R:3 gdb_13760=T pbc="F F F"
C       -0.26910000       1.44040000       0.12130000
C        0.13430000      -0.02020000      -0.12730000
C        1.02650000      -0.15230000      -1.36960000
C        0.82170000      -0.60120000       1.09480000
C        0.03630000      -1.11930000       2.26250000
C        0.80550000      -2.09990000       1.38470000
C        0.10240000      -3.01510000       0.53420000
C       -0.47390000      -3.79470000      -0.17950000
H        0.61280000       2.06650000       0.30260000
H       -0.79570000       1.85430000      -0.74490000
H       -0.92570000       1.53030000       0.99250000
H       -0.77800000      -0.60390000      -0.30390000
H        1.96660000       0.39690000      -1.23690000
H        1.27000000      -1.20000000      -1.56740000
H        0.52850000       0.25440000      -2.25590000
H        1.76700000      -0.11930000       1.33830000
H        0.40500000      -0.95450000       3.26870000
H       -1.04460000      -1.13820000       2.17380000
H        1.71680000      -2.50360000       1.81670000
H       -0.98570000      -4.48290000      -0.80490000
