15
Properties=species:S:1:pos:R:3 gdb_50691=T pbc="F F F"
O       -0.68090000       0.71530000      -0.63830000
C        0.34020000       0.77530000      -0.00380000
C        1.22390000       2.01530000       0.06630000
O        2.56720000       1.66770000       0.35150000
C        3.29910000       1.89910000      -0.84200000
O        2.69910000       3.01690000      -1.44820000
C        1.30700000       2.87960000      -1.24550000
C        0.61970000       2.26010000      -2.47200000
O        1.20550000       1.55740000      -3.25220000
H        0.70810000      -0.06870000       0.61700000
H        0.84440000       2.61990000       0.90200000
H        4.33160000       2.14190000      -0.58110000
H        3.25140000       1.02420000      -1.50660000
H        0.88580000       3.87710000      -1.08100000
H       -0.44370000       2.53980000      -2.60730000
