17
Properties=species:S:1:pos:R:3 gdb_87087=T pbc="F F F"
C       -0.06610000       1.56810000      -0.04290000
C       -0.01920000       0.04790000      -0.00970000
C        1.33640000      -0.64970000      -0.21290000
C        0.70750000      -0.64370000       1.14460000
O        1.20310000       0.19320000       2.14100000
C       -1.16760000      -0.63230000      -0.52440000
C       -2.13720000      -1.21360000      -0.95820000
C       -3.29940000      -1.87410000      -1.48030000
O       -3.44520000      -3.07570000      -1.53650000
H        0.80770000       1.98370000       0.46060000
H       -0.09080000       1.92930000      -1.07500000
H       -0.95930000       1.93610000       0.47000000
H        1.35610000      -1.57230000      -0.78030000
H        2.17670000       0.01790000      -0.37190000
H        0.25980000      -1.57060000       1.49870000
H        2.06570000      -0.13990000       2.41040000
H       -4.08630000      -1.18110000      -1.84350000
