19
Properties=species:S:1:pos:R:3 gdb_91438=T pbc="F F F"
C        0.13410000       1.55300000       0.12340000
N        0.07920000       0.10910000       0.14590000
C       -1.22180000      -0.54960000       0.42090000
C       -0.50350000      -1.53710000       1.36540000
N        0.24470000      -2.60380000       0.65400000
C        1.53170000      -1.87190000       0.78660000
C        2.31360000      -1.71650000      -0.50160000
O        3.48100000      -1.41970000      -0.53980000
C        0.73740000      -0.61210000       1.25440000
H        1.17000000       1.88340000      -0.00410000
H       -0.44230000       1.92900000      -0.72830000
H       -0.26890000       2.02550000       1.04000000
H       -1.92450000       0.10120000       0.96610000
H       -1.71790000      -0.97280000      -0.45830000
H       -0.99340000      -1.81950000       2.29790000
H        0.22760000      -3.50830000       1.10840000
H        2.20060000      -2.23820000       1.57530000
H        1.70880000      -1.88250000      -1.41750000
H        1.15780000      -0.00030000       2.05600000
