18
Properties=species:S:1:pos:R:3 gdb_44786=T pbc="F F F"
O        0.06370000       0.08790000       0.06830000
C        0.03140000       1.29270000       0.09180000
N       -1.07880000       2.12370000       0.24720000
C       -0.50950000       3.44700000      -0.03190000
C        0.73320000       3.40300000       0.96600000
C        1.18510000       2.31150000      -0.08860000
C        2.21230000       1.79420000      -1.13140000
C        1.12380000       2.20510000      -2.22520000
C        0.59260000       3.22050000      -1.15260000
H       -1.95910000       1.83290000      -0.15340000
H       -1.23910000       4.25630000      -0.02470000
H        1.34790000       4.30330000       0.94200000
H        0.50840000       3.09890000       1.99100000
H        3.11040000       2.41040000      -1.20920000
H        2.47960000       0.73800000      -1.06520000
H        1.48330000       2.62820000      -3.16540000
H        0.45280000       1.37040000      -2.43570000
H        1.18730000       4.13550000      -1.23580000
