21
Properties=species:S:1:pos:R:3 gdb_57631=T pbc="F F F"
C       -0.28790000       1.48690000      -0.12030000
C       -0.00550000      -0.01410000       0.08400000
C        0.95820000      -0.23610000       1.26790000
O       -1.21540000      -0.77750000       0.26140000
C       -2.06170000      -0.41080000       1.30920000
C       -3.23360000       0.50360000       1.04720000
C       -3.44080000      -0.98460000       1.24080000
C        0.60110000      -0.56240000      -1.13710000
C        1.12920000      -0.98200000      -2.13090000
H        0.64580000       2.01170000      -0.33820000
H       -0.97180000       1.63430000      -0.95890000
H       -0.73010000       1.92270000       0.77890000
H        0.56700000       0.21810000       2.18280000
H        1.10330000      -1.30590000       1.43380000
H        1.92810000       0.21960000       1.05340000
H       -1.59160000      -0.35850000       2.28930000
H       -3.54890000       1.18580000       1.82970000
H       -3.34240000       0.88440000       0.03860000
H       -3.67060000      -1.56860000       0.35700000
H       -3.90020000      -1.34030000       2.15590000
H        1.58590000      -1.36220000      -3.01100000
