18
Properties=species:S:1:pos:R:3 gdb_111668=T pbc="F F F"
O       -0.06160000       1.31920000       0.50050000
C       -0.01540000       0.12330000      -0.24830000
C       -1.34780000      -0.59820000      -0.22050000
C       -1.52700000      -2.08000000      -0.10500000
C       -0.37140000      -3.03050000       0.25310000
C       -0.20910000      -2.83330000       1.77930000
C       -0.79040000      -1.43750000       2.00900000
O       -0.43470000      -0.61630000       2.81900000
N       -1.81130000      -1.21410000       1.04850000
H       -0.22560000       1.07180000       1.42200000
H        0.21320000       0.40770000      -1.28120000
H        0.79770000      -0.53640000       0.09040000
H       -2.14350000      -0.04480000      -0.71580000
H       -2.39970000      -2.51680000      -0.58320000
H       -0.63220000      -4.05820000      -0.00540000
H        0.54990000      -2.78820000      -0.28380000
H       -0.81200000      -3.56270000       2.33200000
H        0.81360000      -2.88950000       2.15420000
