17
Properties=species:S:1:pos:R:3 gdb_29591=T pbc="F F F"
C       -0.26080000       1.46860000       0.08440000
C       -0.06680000      -0.01410000       0.01820000
C        0.04390000      -0.78690000      -1.09400000
O        0.21460000      -2.09820000      -0.76950000
C        0.21150000      -2.16300000       0.58620000
C        0.04460000      -0.92970000       1.13030000
C       -0.00090000      -0.59250000       2.59830000
C       -1.29080000      -0.05940000       3.03890000
C       -2.35060000       0.38140000       3.39530000
H        0.57850000       1.96290000       0.58850000
H       -0.34470000       1.89930000      -0.91710000
H       -1.16550000       1.72540000       0.64500000
H        0.02180000      -0.56380000      -2.14840000
H        0.33520000      -3.14510000       1.01350000
H        0.23700000      -1.48940000       3.18290000
H        0.78360000       0.13830000       2.83940000
H       -3.28820000       0.76440000       3.71380000
