21
Properties=species:S:1:pos:R:3 gdb_10611=T pbc="F F F"
C        1.74800000      -1.30670000       0.98870000
C        0.65570000      -0.46500000       0.31510000
C        0.82760000      -0.35050000      -1.19180000
C        1.93610000       0.59030000      -1.64170000
O        1.56730000       1.94170000      -1.42260000
C        0.43900000      -1.47650000      -2.09080000
N       -0.32550000      -0.23090000      -2.10500000
C       -1.69160000      -0.27660000      -1.60330000
H        1.75010000      -2.33200000       0.60420000
H        2.74560000      -0.88830000       0.82340000
H        1.58820000      -1.35330000       2.07040000
H       -0.31930000      -0.89910000       0.55400000
H        0.65970000       0.54970000       0.73100000
H        2.85510000       0.42540000      -1.07000000
H        2.16150000       0.40670000      -2.70220000
H        0.74850000       2.06380000      -1.91890000
H        1.01130000      -1.70530000      -2.98700000
H       -0.02910000      -2.34330000      -1.62360000
H       -1.88110000      -1.05900000      -0.85310000
H       -1.95620000       0.69080000      -1.16400000
H       -2.36360000      -0.45910000      -2.44840000
