21
Properties=species:S:1:pos:R:3 gdb_73315=T pbc="F F F"
C       -0.00220000       1.60130000      -0.08980000
C        0.06230000       0.09270000       0.00490000
C        0.57660000      -0.68180000      -1.25000000
C        0.50800000      -2.18980000      -0.79470000
C       -0.02440000      -1.92500000       0.60030000
C       -0.50350000      -2.41600000       1.98630000
C       -0.62730000      -0.85900000       2.04340000
C        0.67480000      -0.66590000       1.20800000
C       -1.09000000      -0.78230000       0.55660000
H        0.98730000       2.02940000      -0.29010000
H       -0.66710000       1.92030000      -0.90120000
H       -0.37490000       2.04280000       0.84050000
H       -0.05500000      -0.49010000      -2.12440000
H        1.59620000      -0.38120000      -1.51500000
H       -0.16880000      -2.78300000      -1.41700000
H        1.48930000      -2.67370000      -0.80500000
H       -1.43780000      -2.98640000       2.01610000
H        0.24720000      -2.87530000       2.63800000
H       -0.97630000      -0.25380000       2.88100000
H        1.70140000      -0.64820000       1.58340000
H       -2.10860000      -0.89950000       0.17720000
