17
Properties=species:S:1:pos:R:3 gdb_3449=T pbc="F F F"
O        0.42740000       0.97430000      -0.75680000
C        0.02320000      -0.13320000       0.03220000
C        0.44560000      -0.03940000       1.52070000
C       -0.55450000      -0.92850000       2.28830000
C       -1.83410000      -0.87770000       1.45680000
C       -2.30450000       0.47840000       0.99660000
C       -1.47640000      -0.39000000       0.07270000
H       -0.10850000       1.72800000      -0.48590000
H        0.51280000      -0.99510000      -0.43650000
H        1.48660000      -0.33380000       1.67100000
H        0.36750000       1.00530000       1.84260000
H       -0.19340000      -1.96300000       2.32800000
H       -0.70030000      -0.60090000       3.32360000
H       -2.57720000      -1.65430000       1.60120000
H       -3.35580000       0.58260000       0.75230000
H       -1.87190000       1.37000000       1.44140000
H       -1.95040000      -0.79160000      -0.81580000
