17
Properties=species:S:1:pos:R:3 gdb_2088=T pbc="F F F"
C       -0.01860000       1.53050000       0.04890000
C       -0.00340000       0.02950000      -0.02140000
C       -0.05290000      -0.64880000      -1.16870000
C        0.00920000      -2.15050000      -1.23610000
O        0.36980000      -2.75690000      -0.01040000
C       -0.31680000      -2.18960000       1.09060000
C        0.07410000      -0.72380000       1.28770000
H        0.87500000       1.90970000       0.56210000
H       -0.05510000       1.98250000      -0.94610000
H       -0.88160000       1.89290000       0.62250000
H       -0.13900000      -0.12780000      -2.11980000
H       -0.95920000      -2.55040000      -1.59350000
H        0.76540000      -2.46860000      -1.96440000
H       -1.40730000      -2.26580000       0.94220000
H       -0.05300000      -2.79540000       1.96220000
H        1.08980000      -0.65490000       1.70200000
H       -0.59060000      -0.26180000       2.03030000
