19
Properties=species:S:1:pos:R:3 gdb_68283=T pbc="F F F"
C        0.05220000       1.48180000       0.09230000
C        0.02900000      -0.00660000      -0.05990000
C        0.72920000      -0.92700000      -1.09030000
C        0.10800000      -1.80490000       0.01740000
O        0.62770000      -0.83260000       1.01470000
C       -1.22020000      -1.00130000      -0.04100000
C       -2.09450000      -0.96030000       1.20910000
C       -2.08680000      -1.08260000      -1.27120000
O       -1.97800000      -1.88640000      -2.16460000
H        1.08370000       1.83130000       0.19900000
H       -0.38620000       1.96240000      -0.78770000
H       -0.51140000       1.79210000       0.97730000
H        0.33130000      -1.00280000      -2.10110000
H        1.81760000      -0.87370000      -1.05580000
H        0.25350000      -2.86350000       0.22800000
H       -1.46690000      -0.83640000       2.09210000
H       -2.81010000      -0.13160000       1.16250000
H       -2.67100000      -1.88580000       1.31480000
H       -2.90060000      -0.31890000      -1.29280000
