19
Properties=species:S:1:pos:R:3 gdb_17644=T pbc="F F F"
C        0.43890000       1.50450000       0.00840000
N        0.03630000       0.10190000       0.02520000
C        0.36570000      -0.65880000       1.19700000
C       -0.10560000      -0.16970000       2.54450000
C       -0.69700000      -1.41900000       1.95250000
C       -0.32620000      -0.48370000      -1.17410000
C       -0.52890000      -1.99140000      -1.17530000
O       -0.48150000       0.16990000      -2.19110000
H        1.51490000       1.60470000       0.20000000
H        0.20840000       1.90590000      -0.97670000
H       -0.09820000       2.07630000       0.77100000
H        1.35950000      -1.10880000       1.18850000
H        0.58030000      -0.25460000       3.37930000
H       -0.73490000       0.71210000       2.56780000
H       -1.71300000      -1.35250000       1.58210000
H       -0.43010000      -2.38240000       2.37230000
H       -1.40760000      -2.27750000      -0.59110000
H       -0.67650000      -2.29680000      -2.21060000
H        0.32860000      -2.52350000      -0.75340000
