20
Properties=species:S:1:pos:R:3 gdb_7658=T pbc="F F F"
C       -0.12070000       1.54210000       0.07870000
C       -0.02700000       0.01130000      -0.00370000
C       -1.47100000      -0.50130000      -0.19060000
C        1.16330000      -0.58890000      -0.86290000
C        2.12830000      -0.14300000       0.27870000
C        0.90230000      -0.76560000       1.00350000
C        1.06380000      -1.91770000      -0.06250000
O        0.10510000      -2.90740000      -0.33050000
H        0.83470000       2.06640000       0.06170000
H       -0.70980000       1.91750000      -0.76640000
H       -0.64860000       1.84060000       0.99180000
H       -1.76270000      -0.49870000      -1.24930000
H       -1.63860000      -1.49640000       0.22010000
H       -2.16960000       0.16960000       0.32010000
H        1.32200000      -0.47850000      -1.93930000
H        3.06630000      -0.69850000       0.35140000
H        2.30380000       0.92040000       0.40950000
H        0.76000000      -0.87400000       2.08070000
H        2.01260000      -2.45150000       0.04440000
H       -0.55480000      -2.56160000      -0.93440000
