14
Properties=species:S:1:pos:R:3 gdb_5458=T pbc="F F F"
N        0.02840000       1.41890000       0.16620000
C        0.03750000       0.02800000       0.04900000
C       -1.08950000      -0.79340000       0.01770000
N       -0.62940000      -2.10680000      -0.02020000
C        0.72870000      -2.11880000      -0.02500000
C        1.17920000      -0.81470000       0.01890000
C       -2.44810000      -0.44940000       0.02010000
C       -3.61380000      -0.13100000       0.00990000
H        0.77520000       1.87060000      -0.34410000
H       -0.86380000       1.82540000      -0.08500000
H       -1.23010000      -2.91100000      -0.04930000
H        1.27810000      -3.04610000      -0.05720000
H        2.21070000      -0.49830000       0.03850000
H       -4.63800000       0.14640000       0.02300000
