15
Properties=species:S:1:pos:R:3 gdb_45023=T pbc="F F F"
N       -0.28780000       1.31980000      -0.19650000
C       -0.14920000       0.06770000      -0.12970000
O        1.07510000      -0.53570000      -0.34730000
C        1.23450000      -1.87100000      -0.66650000
O        2.33770000      -2.32470000      -0.66800000
C       -0.01080000      -2.63280000      -1.08740000
C       -1.23330000      -2.22700000      -0.30350000
N       -0.97500000      -1.95520000       1.11070000
C       -1.28150000      -0.82880000       0.19770000
H        0.59340000       1.76680000      -0.45640000
H       -0.17010000      -2.43930000      -2.15650000
H        0.21580000      -3.69550000      -0.97560000
H       -2.17120000      -2.69470000      -0.59050000
H       -1.79180000      -2.15710000       1.68050000
H       -2.23080000      -0.31440000       0.28570000
