17
Properties=species:S:1:pos:R:3 gdb_1479=T pbc="F F F"
C       -0.05120000       1.56030000      -0.11500000
C       -0.04670000       0.03400000       0.03790000
C       -1.46850000      -0.52880000       0.07170000
O       -2.14030000       0.03030000       1.18920000
C        0.76910000      -0.65150000      -1.07480000
C        2.24360000      -0.32700000      -0.99010000
O        2.92200000       0.07160000      -1.90070000
H        0.96180000       1.97170000      -0.06360000
H       -0.47630000       1.85140000      -1.08300000
H       -0.65210000       2.01870000       0.67280000
H        0.41160000      -0.21840000       1.00490000
H       -1.98400000      -0.27930000      -0.87070000
H       -1.42780000      -1.62790000       0.14360000
H       -3.06010000      -0.24770000       1.16100000
H        0.68060000      -1.74360000      -0.96940000
H        0.40800000      -0.37920000      -2.07190000
H        2.68600000      -0.49720000       0.02100000
