20
Properties=species:S:1:pos:R:3 gdb_107975=T pbc="F F F"
C       -0.04900000       1.54990000       0.08300000
C       -0.07760000       0.01740000       0.03180000
C       -1.46570000      -0.53630000       0.00170000
O       -2.38840000      -0.25550000       1.10680000
C       -3.18180000      -1.07530000       0.20340000
C       -2.57520000      -0.47170000      -1.09670000
N       -2.14040000      -1.78020000      -1.68530000
C       -1.98590000      -2.00540000      -0.20520000
C       -1.50390000      -3.27770000       0.41820000
H        0.97900000       1.91800000       0.14510000
H       -0.50840000       1.98200000      -0.81170000
H       -0.59940000       1.91750000       0.95330000
H        0.44260000      -0.35250000      -0.85980000
H        0.44430000      -0.39820000       0.90290000
H       -4.21340000      -1.30820000       0.47400000
H       -2.91150000       0.37910000      -1.68960000
H       -2.95290000      -2.29460000      -2.03640000
H       -0.52440000      -3.55930000       0.01930000
H       -1.41770000      -3.14720000       1.50170000
H       -2.19830000      -4.10340000       0.22820000
