19
Properties=species:S:1:pos:R:3 gdb_84426=T pbc="F F F"
C       -0.29930000       1.52650000      -0.06730000
C        0.11390000       0.05870000      -0.02400000
N        1.02650000      -0.27640000      -1.14010000
C        1.92240000      -1.04870000      -0.67620000
N        1.86180000      -1.31500000       0.69450000
C        2.67450000      -2.19590000       1.36050000
O        3.53740000      -2.86570000       0.83880000
C        0.83270000      -0.43330000       1.28450000
C        1.47190000       0.65450000       2.15060000
H        0.56220000       2.19330000       0.02420000
H       -0.77910000       1.73360000      -1.02690000
H       -1.01050000       1.76390000       0.73000000
H       -0.78930000      -0.54930000      -0.17080000
H        2.71650000      -1.50980000      -1.25020000
H        2.44460000      -2.23610000       2.44230000
H        0.14690000      -1.02820000       1.89460000
H        2.18180000       1.25370000       1.57370000
H        0.70960000       1.32130000       2.56260000
H        2.01210000       0.20610000       2.99010000
