16
Properties=species:S:1:pos:R:3 gdb_123481=T pbc="F F F"
C       -0.12810000       1.60830000       0.13650000
N       -0.28430000       0.26360000      -0.39600000
C       -0.16560000      -0.82910000       0.56920000
C       -1.49240000      -0.44450000       0.01560000
C        1.29690000       2.04250000       0.02900000
C        2.37440000       1.53220000      -0.62790000
N        3.43050000       2.37300000      -0.36790000
N        3.08330000       3.32260000       0.37170000
O        1.67360000       3.14720000       0.66520000
H       -0.75600000       2.29110000      -0.45050000
H       -0.45480000       1.70460000       1.18730000
H        0.34510000      -1.71770000       0.21190000
H        0.03660000      -0.57140000       1.60740000
H       -2.18080000       0.06860000       0.68490000
H       -1.96740000      -1.04630000      -0.75310000
H        2.46310000       0.65880000      -1.24790000
