18
Properties=species:S:1:pos:R:3 gdb_96204=T pbc="F F F"
C       -0.07840000       1.54730000      -0.00550000
C        0.01950000       0.01610000       0.01500000
C        0.74300000      -0.50520000      -1.23320000
O        0.99210000      -1.89740000      -1.16010000
C        1.90330000      -2.22730000      -0.13690000
C        1.62810000      -1.52150000       1.15650000
C        0.74960000      -0.51280000       1.24340000
C        0.47550000       0.09370000       2.50870000
N        0.22960000       0.60100000       3.52100000
H        0.91580000       2.00670000      -0.00780000
H       -0.60950000       1.88210000      -0.90210000
H       -0.61850000       1.92160000       0.86770000
H       -0.99820000      -0.39700000       0.02110000
H        0.13010000      -0.34920000      -2.12500000
H        1.68720000       0.04920000      -1.36800000
H        1.83100000      -3.31190000       0.00830000
H        2.94430000      -2.02010000      -0.44970000
H        2.16850000      -1.86360000       2.03400000
