23
Properties=species:S:1:pos:R:3 gdb_104725=T pbc="F F F"
C        0.04060000       1.48540000      -0.09830000
C        0.01240000      -0.03210000       0.02690000
C       -1.20200000      -0.62230000      -0.67520000
C        1.31530000      -0.79200000      -0.03600000
C        0.57080000      -0.71320000       1.28130000
C        1.16820000       0.13530000       2.38490000
O        2.14610000      -0.65560000       3.07810000
C       -0.05370000      -1.99450000       1.83070000
O        0.90840000      -2.97690000       2.16930000
H        0.95930000       1.93240000       0.28640000
H       -0.03650000       1.76950000      -1.15420000
H       -0.80530000       1.94690000       0.42530000
H       -1.25020000      -0.24490000      -1.70330000
H       -1.17260000      -1.71140000      -0.73560000
H       -2.13580000      -0.33460000      -0.17740000
H        1.33280000      -1.75430000      -0.53720000
H        2.23920000      -0.22910000      -0.12900000
H        1.64230000       1.04110000       1.99100000
H        0.37600000       0.44680000       3.08360000
H        2.37230000      -0.21090000       3.90000000
H       -0.68000000      -1.73460000       2.70290000
H       -0.71450000      -2.46270000       1.09900000
H        1.57250000      -2.51720000       2.69980000
