14
Properties=species:S:1:pos:R:3 gdb_68107=T pbc="F F F"
O       -0.04830000       1.35420000       0.12790000
C        0.03760000      -0.00360000       0.05110000
C        0.68520000      -1.02160000       1.08030000
C        0.05110000      -1.94300000      -0.01550000
C       -1.18690000      -0.97580000       0.01020000
C        0.04660000      -3.37030000      -0.05920000
N        0.05170000      -4.52580000      -0.11140000
C        0.64940000      -0.90960000      -1.02630000
O        1.26060000      -0.86310000      -2.04160000
H        0.71600000       1.74510000      -0.31150000
H        1.77100000      -1.04110000       1.18030000
H        0.17230000      -1.06080000       2.04250000
H       -1.75840000      -1.01810000       0.93880000
H       -1.82410000      -0.95610000      -0.87420000
