19
Properties=species:S:1:pos:R:3 gdb_47728=T pbc="F F F"
O        0.01790000       0.01590000       0.37870000
C        0.00260000       1.19550000       0.10150000
C       -1.30070000       1.96830000      -0.06760000
C       -1.17010000       3.16020000      -1.02450000
O       -0.05850000       3.96720000      -0.68170000
C        1.15380000       3.26480000      -0.87450000
C        1.25420000       2.01980000      -0.00460000
C        2.08630000       2.06090000       1.27630000
C        2.57320000       1.29530000       0.08610000
H       -2.08870000       1.27500000      -0.37410000
H       -1.56450000       2.34860000       0.92840000
H       -1.07430000       2.80550000      -2.06470000
H       -2.05420000       3.80090000      -0.97060000
H        1.25040000       2.97890000      -1.93650000
H        1.96430000       3.96280000      -0.64340000
H        2.55670000       3.00710000       1.52320000
H        1.71580000       1.49610000       2.12430000
H        2.51880000       0.21380000       0.12400000
H        3.40030000       1.70420000      -0.48540000
