15
Properties=species:S:1:pos:R:3 gdb_14254=T pbc="F F F"
C        0.45310000       1.48810000      -0.00830000
C        0.11840000       0.01690000       0.07580000
O        0.89560000      -0.81490000      -0.84140000
C        1.30020000      -1.70250000       0.22040000
C        0.61100000      -0.81550000       1.27370000
O        1.91170000      -0.39630000       1.77860000
C        2.58210000      -1.24020000       0.89330000
N        3.80110000      -1.48320000       0.76140000
H        1.49490000       1.66590000       0.26540000
H        0.28970000       1.84690000      -1.02860000
H       -0.19180000       2.06320000       0.66460000
H       -0.95150000      -0.15860000      -0.10290000
H        1.14220000      -2.75880000       0.00620000
H       -0.06170000      -1.11660000       2.07370000
H        4.36970000      -0.93720000       1.41140000
