20
Properties=species:S:1:pos:R:3 gdb_119185=T pbc="F F F"
C       -0.00150000       1.50430000      -0.11970000
C        0.07170000       0.00750000       0.05820000
N        1.39540000      -0.62290000       0.02820000
C        0.60230000      -0.68030000       1.28820000
C        1.18740000       0.08060000       2.46700000
C        2.35920000      -0.65480000       3.10910000
O        2.83050000       0.15390000       4.17790000
C       -0.01410000      -1.94440000       1.61650000
C       -0.51470000      -3.00350000       1.89320000
H        0.85370000       2.00810000       0.33380000
H       -0.00310000       1.75080000      -1.18700000
H       -0.92100000       1.90500000       0.31950000
H       -0.73450000      -0.53650000      -0.43170000
H        1.35420000      -1.52220000      -0.44450000
H        1.53990000       1.05990000       2.13670000
H        0.41020000       0.24520000       3.22140000
H        2.03020000      -1.64160000       3.46820000
H        3.13970000      -0.81740000       2.35060000
H        3.58030000      -0.29210000       4.58170000
H       -0.96160000      -3.93530000       2.13770000
