21
Properties=species:S:1:pos:R:3 gdb_40902=T pbc="F F F"
C        0.18400000       1.41290000      -0.31680000
C        1.61540000       1.53610000       0.24630000
C        1.33370000       0.15200000       0.82930000
O        0.01280000       0.10580000       0.27520000
C        2.13900000      -1.10740000       0.90060000
C        3.65700000      -1.00170000       0.94760000
C        3.95390000       0.08580000       2.00880000
C        2.76150000       0.04310000       2.99540000
C        1.58270000      -0.45820000       2.17290000
H       -0.54410000       2.13350000       0.07310000
H        0.10410000       1.37710000      -1.40940000
H        2.41020000       1.57930000      -0.50140000
H        1.76360000       2.33370000       0.97730000
H        1.67810000      -1.99710000       0.48420000
H        4.07090000      -1.96780000       1.26000000
H        4.10630000      -0.76090000      -0.02260000
H        4.91360000      -0.07040000       2.50820000
H        4.00550000       1.06850000       1.53000000
H        2.95760000      -0.66890000       3.80590000
H        2.58200000       1.01770000       3.46350000
H        0.71880000      -0.87780000       2.67800000
