23
Properties=species:S:1:pos:R:3 gdb_122176=T pbc="F F F"
C        0.12760000       1.29800000      -0.24250000
O        0.00700000      -0.03360000       0.18960000
C       -1.26880000      -0.58210000      -0.06690000
C       -1.28080000      -2.01900000       0.44530000
C       -2.59160000      -2.74590000       0.19070000
C       -3.78060000      -2.27390000       1.00900000
C       -2.86700000      -3.24070000      -1.22390000
C       -2.53210000      -4.21850000      -0.12380000
O       -1.28190000      -4.84470000      -0.10680000
H        1.14050000       1.63180000      -0.00290000
H       -0.02910000       1.39350000      -1.32940000
H       -0.59300000       1.96150000       0.26320000
H       -2.04650000       0.02510000       0.42730000
H       -1.48650000      -0.55990000      -1.14900000
H       -0.45960000      -2.56450000      -0.02560000
H       -1.06960000      -2.00760000       1.52190000
H       -4.05290000      -1.23990000       0.77030000
H       -4.66300000      -2.89390000       0.82120000
H       -3.56040000      -2.32200000       2.08190000
H       -3.88140000      -3.20660000      -1.60850000
H       -2.09470000      -3.06890000      -1.96720000
H       -3.34490000      -4.83160000       0.26810000
H       -1.24430000      -5.45230000      -0.85240000
