17
Properties=species:S:1:pos:R:3 gdb_123845=T pbc="F F F"
C       -0.01760000       1.50310000       0.06980000
C        1.39440000       2.11910000      -0.06130000
C        2.18500000       1.37480000      -1.09310000
N        3.18610000       1.85300000      -1.81650000
N        3.61150000       0.78340000      -2.53150000
C        2.90790000      -0.34980000      -2.27690000
C        1.95660000      -0.00630000      -1.33660000
C        0.89160000      -0.71400000      -0.64950000
C       -0.02260000      -0.01180000       0.03530000
H       -0.48960000       1.86260000       0.98990000
H       -0.65130000       1.86900000      -0.75330000
H        1.33590000       3.18480000      -0.29830000
H        1.91140000       2.03830000       0.90550000
H        4.36860000       0.90460000      -3.18130000
H        3.12720000      -1.27830000      -2.78050000
H        0.84260000      -1.79750000      -0.70190000
H       -0.83630000      -0.52290000       0.54130000
