15
Properties=species:S:1:pos:R:3 gdb_50965=T pbc="F F F"
O       -0.14730000       0.87630000       1.18730000
C        0.08060000       1.31530000       0.09480000
C        1.42980000       1.90800000      -0.31620000
N        1.31640000       2.88460000      -1.37910000
C        0.77460000       4.20220000      -1.07950000
C        1.61690000       4.94800000      -0.13400000
N        2.27820000       5.51300000       0.62580000
C        1.75750000       2.63640000      -2.65700000
O        1.69030000       3.41850000      -3.57560000
H       -0.67660000       1.30370000      -0.72370000
H        1.92590000       2.32600000       0.56650000
H        2.05080000       1.07710000      -0.67530000
H        0.71720000       4.74080000      -2.02990000
H       -0.23740000       4.12770000      -0.66350000
H        2.18140000       1.61910000      -2.75100000
