25
Properties=species:S:1:pos:R:3 gdb_122131=T pbc="F F F"
C       -0.06160000       1.12960000      -0.66610000
C        0.09630000      -0.32200000      -0.21050000
C        0.80470000      -0.46490000       1.14120000
C        0.88000000      -1.92890000       1.58600000
C        1.53220000      -2.12520000       2.94740000
O        1.49840000      -3.50150000       3.26200000
C        2.11100000      -3.79570000       4.49240000
O        2.12700000       0.07140000       1.02410000
C        2.44720000       1.09710000       1.93570000
H        0.91460000       1.61580000      -0.74570000
H       -0.54700000       1.18500000      -1.64520000
H       -0.67180000       1.70570000       0.03910000
H       -0.88590000      -0.80560000      -0.14180000
H        0.67240000      -0.88410000      -0.95580000
H        0.24780000       0.11400000       1.89570000
H       -0.13200000      -2.34910000       1.61840000
H        1.44310000      -2.50030000       0.83920000
H        2.57190000      -1.76170000       2.92750000
H        0.99680000      -1.54520000       3.72130000
H        3.17420000      -3.50560000       4.50170000
H        1.61250000      -3.28460000       5.33230000
H        2.03940000      -4.87540000       4.64610000
H        1.77820000       1.96490000       1.83600000
H        2.41240000       0.75500000       2.98130000
H        3.46830000       1.41850000       1.71170000
