21
Properties=species:S:1:pos:R:3 gdb_95174=T pbc="F F F"
C       -0.20490000       1.53700000       0.01820000
C        0.01130000       0.01180000      -0.02740000
C        0.71400000      -0.47870000      -1.30870000
C        2.18990000      -0.05990000      -1.38990000
C        2.98170000      -0.43240000      -0.13460000
C        3.12970000       0.56160000       0.97370000
C        2.22430000      -0.65070000       1.16920000
C        0.73920000      -0.50250000       1.22190000
O        0.11700000      -0.83350000       2.20950000
H        0.72660000       2.10260000      -0.07260000
H       -0.85720000       1.84700000      -0.80490000
H       -0.68460000       1.82520000       0.95790000
H       -0.97980000      -0.45060000       0.03320000
H        0.65620000      -1.57400000      -1.33770000
H        0.17060000      -0.11480000      -2.18900000
H        2.64910000      -0.54130000      -2.25900000
H        2.26400000       1.01830000      -1.57190000
H        3.82240000      -1.10040000      -0.29210000
H        4.04330000       0.57320000       1.55720000
H        2.66850000       1.53540000       0.85430000
H        2.59020000      -1.39510000       1.86770000
