16
Properties=species:S:1:pos:R:3 gdb_37101=T pbc="F F F"
C       -0.01350000       1.51670000       0.09600000
O        1.14850000       0.68890000      -0.10320000
C       -0.10850000       0.06400000       0.00470000
C       -0.41770000      -0.99750000       1.05310000
N       -1.87700000      -1.25250000       0.92340000
C       -0.92660000      -1.92400000      -0.00230000
C       -0.63340000      -0.89100000      -1.08320000
C       -1.21860000      -0.67620000      -2.40200000
O        0.11940000      -1.18360000      -2.23660000
H       -0.08190000       2.00210000       1.06820000
H       -0.29150000       2.13390000      -0.75670000
H        0.13160000      -1.20430000       1.96200000
H       -2.12530000      -1.93390000       1.64120000
H       -0.85490000      -3.00050000      -0.08410000
H       -1.94450000      -1.38730000      -2.79290000
H       -1.28240000       0.33110000      -2.81040000
