19
Properties=species:S:1:pos:R:3 gdb_105036=T pbc="F F F"
C        0.68920000      -0.60730000       1.35760000
O        0.04170000      -0.23890000       0.14400000
C       -1.23950000      -0.76690000      -0.04680000
C       -1.51290000      -1.24790000      -1.44610000
C       -1.37830000      -2.24260000      -0.31330000
C       -2.34410000      -0.03150000       0.69530000
O       -2.32350000      -0.27300000       2.07860000
C       -2.22920000       1.46210000       0.42970000
O       -2.22450000       2.26330000       1.33190000
H        1.70210000      -0.20230000       1.29780000
H        0.17790000      -0.19930000       2.23360000
H        0.74490000      -1.69870000       1.46350000
H       -2.49240000      -1.07980000      -1.88040000
H       -0.68480000      -1.16930000      -2.14000000
H       -0.47010000      -2.83280000      -0.28040000
H       -2.26430000      -2.75260000       0.04760000
H       -3.31020000      -0.35120000       0.26070000
H       -2.36060000       0.60560000       2.49180000
H       -2.16510000       1.76940000      -0.63180000
