18
Properties=species:S:1:pos:R:3 gdb_78211=T pbc="F F F"
C       -0.00760000       1.56400000       0.03650000
C        0.04540000       0.06520000      -0.14720000
C        0.70520000      -0.67390000      -1.23660000
N        1.25290000      -0.75720000       0.21270000
C        2.40110000       0.00140000      -0.23880000
O        3.33560000       0.41100000       0.37860000
C        2.00650000      -0.05110000      -1.74020000
C        2.88680000      -1.03190000      -2.51340000
O        1.84540000       1.16880000      -2.43120000
H        0.83230000       2.07410000      -0.43470000
H       -0.92840000       1.94900000      -0.41360000
H       -0.02490000       1.80840000       1.10330000
H       -0.83770000      -0.44310000       0.23590000
H        0.26140000      -1.55690000      -1.68310000
H        2.95730000      -1.99630000      -2.00240000
H        2.47360000      -1.18870000      -3.51440000
H        3.90090000      -0.62990000      -2.61040000
H        2.72360000       1.51140000      -2.63450000
