20
Properties=species:S:1:pos:R:3 gdb_33138=T pbc="F F F"
C       -0.04260000       1.39010000      -0.01100000
O       -0.02120000      -0.01460000       0.00390000
C        0.62880000      -0.56400000      -1.12280000
C        0.60980000      -2.05640000      -1.03170000
C        0.05200000      -2.79920000      -0.01860000
N        0.24820000      -4.12440000      -0.31370000
C        0.92420000      -4.23750000      -1.50270000
C        1.16830000      -2.97040000      -1.98220000
C        1.88020000      -2.61500000      -3.25250000
H        0.97390000       1.81630000      -0.01230000
H       -0.57700000       1.78340000      -0.89110000
H       -0.56150000       1.72070000       0.89240000
H        0.13200000      -0.22140000      -2.05020000
H        1.66760000      -0.18780000      -1.18070000
H       -0.46060000      -2.48410000       0.87410000
H       -0.05730000      -4.89370000       0.25450000
H        1.17810000      -5.20210000      -1.91350000
H        1.24130000      -2.03960000      -3.93450000
H        2.77290000      -2.00440000      -3.06630000
H        2.20410000      -3.51250000      -3.78760000
