16
Properties=species:S:1:pos:R:3 gdb_45768=T pbc="F F F"
O        0.02120000       0.08300000       0.28720000
C       -0.04750000       1.26830000       0.09890000
C       -1.32410000       2.09640000      -0.09180000
C       -0.82120000       3.51280000      -0.00770000
C        0.50820000       3.58570000       0.08220000
C        1.16300000       2.22890000       0.06690000
C        2.13700000       1.91460000       1.22520000
C        3.35400000       2.71810000       1.16190000
N        4.30510000       3.37100000       1.09310000
H       -1.77900000       1.85630000      -1.06280000
H       -2.06980000       1.83090000       0.66680000
H       -1.48710000       4.36730000      -0.03000000
H        1.08360000       4.50190000       0.14400000
H        1.70390000       2.05930000      -0.87550000
H        1.64690000       2.09320000       2.18880000
H        2.39440000       0.85110000       1.18710000
