18
Properties=species:S:1:pos:R:3 gdb_3076=T pbc="F F F"
C        0.61020000       1.55530000      -0.25300000
O        0.65330000       0.17710000       0.02350000
C       -0.22440000      -0.57230000      -0.78610000
C       -0.09560000      -2.03810000      -0.39010000
N       -1.00100000      -2.85260000      -1.18930000
C       -0.45730000      -3.39860000      -2.43030000
C       -0.70020000      -4.27690000      -1.25340000
H        0.90080000       1.77350000      -1.29340000
H       -0.39440000       1.97550000      -0.08510000
H        1.31570000       2.04810000       0.42060000
H       -1.26740000      -0.24230000      -0.65360000
H        0.02410000      -0.44350000      -1.85380000
H        0.95990000      -2.34740000      -0.49070000
H       -0.36810000      -2.14710000       0.66550000
H       -1.13370000      -3.41150000      -3.28000000
H        0.58000000      -3.17390000      -2.67560000
H        0.17490000      -4.63850000      -0.71540000
H       -1.55780000      -4.94320000      -1.22690000
