16
Properties=species:S:1:pos:R:3 gdb_32273=T pbc="F F F"
N        0.07950000       1.35750000      -0.07890000
C        0.06510000      -0.01320000      -0.05380000
N       -1.12010000      -0.62840000      -0.03000000
C       -1.10170000      -1.96270000       0.02760000
C        0.07730000      -2.69210000       0.04420000
N        1.26920000      -2.07820000       0.02370000
C        1.28050000      -0.75360000      -0.00970000
C        2.61690000      -0.05300000       0.02050000
O        2.77010000       0.91640000      -1.02400000
H        0.89300000       1.77990000      -0.50520000
H       -0.81190000       1.78270000      -0.28400000
H       -2.06770000      -2.46120000       0.05520000
H        0.07570000      -3.77690000       0.07580000
H        2.72500000       0.52080000       0.94840000
H        3.40690000      -0.81180000      -0.01010000
H        2.72310000       0.44610000      -1.86370000
