17
Properties=species:S:1:pos:R:3 gdb_113648=T pbc="F F F"
C        0.08600000       1.31200000       0.23080000
O       -0.53810000       0.17790000      -0.34420000
C        0.23800000      -0.44340000      -1.30490000
C        1.34490000      -1.36400000      -0.91280000
C        0.05720000      -1.94670000      -1.47920000
C       -0.84980000      -2.65940000      -0.54980000
O       -0.79110000      -2.63550000       0.65990000
C       -1.95630000      -3.50690000      -1.19350000
O       -2.07140000      -3.67820000      -2.37850000
H        1.02910000       1.04540000       0.72680000
H        0.29300000       2.08430000      -0.52480000
H       -0.60910000       1.71400000       0.97020000
H        0.35020000       0.12220000      -2.23190000
H        2.23870000      -1.41740000      -1.52360000
H        1.47700000      -1.53530000       0.15040000
H        0.02810000      -2.30610000      -2.50030000
H       -2.63200000      -3.96220000      -0.43910000
