19
Properties=species:S:1:pos:R:3 gdb_89827=T pbc="F F F"
C        0.08580000       1.57570000       0.03100000
C       -0.02560000       0.04030000      -0.01360000
C        0.68490000      -0.58870000      -1.23110000
C        2.09830000      -0.87430000      -0.73330000
C        3.22570000      -1.20900000      -1.60210000
O        3.09830000       0.10660000      -1.04940000
C        1.98100000      -1.26670000       0.72670000
C        0.70680000      -0.55510000       1.20430000
O        0.34100000      -0.46280000       2.34670000
H        1.12810000       1.89750000      -0.05960000
H       -0.47650000       2.02200000      -0.79470000
H       -0.31480000       1.95750000       0.97360000
H       -1.08150000      -0.23970000       0.04710000
H        0.19990000      -1.53040000      -1.51480000
H        0.70140000       0.06120000      -2.10920000
H        4.05430000      -1.80010000      -1.21340000
H        3.07510000      -1.27980000      -2.67920000
H        1.82640000      -2.34770000       0.83990000
H        2.85180000      -0.98870000       1.32390000
