21
Properties=species:S:1:pos:R:3 gdb_37374=T pbc="F F F"
C        0.02240000       1.55520000       0.18820000
C        1.30300000       0.77730000      -0.01550000
C       -0.02650000       0.06100000      -0.02660000
C       -0.33280000      -0.59520000      -1.37560000
C       -0.27980000       0.42450000      -2.53150000
C        1.21220000       0.71100000      -2.64600000
C        1.94000000      -0.52800000      -2.16210000
C        0.87200000      -1.52070000      -1.70610000
C        1.99920000       0.75520000      -1.34880000
H       -0.19080000       1.90960000       1.19120000
H       -0.30220000       2.23120000      -0.59350000
H        1.95310000       0.65600000       0.84660000
H       -0.28420000      -0.54320000       0.83860000
H       -1.28350000      -1.13340000      -1.34130000
H       -0.63400000      -0.04130000      -3.45950000
H       -0.90240000       1.30580000      -2.35630000
H        1.57970000       1.28580000      -3.48900000
H        2.83460000      -0.89350000      -2.65330000
H        1.17620000      -2.12250000      -0.84240000
H        0.62700000      -2.20830000      -2.52440000
H        2.93500000       1.30390000      -1.40260000
