17
Properties=species:S:1:pos:R:3 gdb_81257=T pbc="F F F"
C       -0.16610000       1.51490000      -0.00050000
C        0.01650000       0.00160000       0.01570000
C        1.15400000      -0.58880000      -0.89990000
C        2.13950000      -0.29020000       0.27850000
C        0.89570000      -0.59780000       1.17690000
C        0.72820000      -2.08050000       0.88950000
O        0.50280000      -3.00830000       1.61200000
C        0.92280000      -2.07370000      -0.67500000
O        0.88220000      -2.99510000      -1.43860000
H        0.77110000       2.06410000       0.11890000
H       -0.61880000       1.82870000      -0.94660000
H       -0.83770000       1.82090000       0.80820000
H       -0.96340000      -0.47340000      -0.10830000
H        1.32470000      -0.25620000      -1.92160000
H        3.02010000      -0.92900000       0.38520000
H        2.44020000       0.75590000       0.32040000
H        0.81060000      -0.27410000       2.21210000
