18
Properties=species:S:1:pos:R:3 gdb_82079=T pbc="F F F"
C       -0.23360000       1.53270000      -0.14860000
C       -0.01810000       0.03120000      -0.01360000
C        0.66950000      -0.66580000      -1.20160000
O        1.97790000      -0.10150000      -1.31330000
C        1.77730000      -1.15150000      -0.36500000
C        1.16880000      -0.53430000       0.89450000
C        2.09000000       0.37450000       1.69740000
N        1.47040000       1.09780000       2.68120000
O        3.29110000       0.40720000       1.52410000
H        0.69470000       2.02730000      -0.44460000
H       -0.99120000       1.73880000      -0.91270000
H       -0.58150000       1.98590000       0.78540000
H       -0.95200000      -0.47460000       0.25130000
H        0.22210000      -1.07570000      -2.09980000
H        2.40690000      -2.02790000      -0.45210000
H        0.77040000      -1.30370000       1.56500000
H        0.46970000       1.17470000       2.73090000
H        2.02470000       1.77140000       3.18520000
