22
Properties=species:S:1:pos:R:3 gdb_20065=T pbc="F F F"
C       -0.19420000       1.46150000      -0.05630000
C        1.25060000       1.08430000       0.16250000
C        0.20220000       0.00830000       0.02540000
C       -0.19830000      -0.83920000       1.20950000
C       -1.60010000      -1.47130000       1.10600000
C       -1.61430000      -2.57650000       2.18530000
C       -0.12090000      -2.96670000       2.41100000
C        0.69580000      -2.07060000       1.45350000
H       -0.73840000       1.88470000       0.78220000
H       -0.48110000       1.86860000      -1.01960000
H        1.95180000       1.23340000      -0.65130000
H        1.67380000       1.25490000       1.14730000
H        0.20410000      -0.53250000      -0.91950000
H       -0.17000000      -0.20820000       2.11110000
H       -2.40670000      -0.74250000       1.22700000
H       -1.71560000      -1.91290000       0.10740000
H       -2.05090000      -2.19620000       3.11430000
H       -2.22510000      -3.43180000       1.88320000
H        0.16750000      -2.77660000       3.44980000
H        0.06200000      -4.02930000       2.22820000
H        0.85810000      -2.58450000       0.49690000
H        1.68290000      -1.81010000       1.84640000
