21
Properties=species:S:1:pos:R:3 gdb_116673=T pbc="F F F"
C        0.53150000       0.71780000       0.75650000
C       -0.25390000       0.35970000      -0.50840000
N        0.40570000      -0.41210000      -1.54880000
C        1.61130000      -0.76860000      -1.42400000
N        2.30350000      -1.48630000      -2.40560000
C        3.66040000      -1.96580000      -2.13020000
C        3.68680000      -3.37900000      -1.54540000
C        1.73090000      -1.78940000      -3.62840000
O        2.29340000      -2.43720000      -4.48390000
H        0.86590000      -0.17390000       1.29770000
H        1.41060000       1.33230000       0.53410000
H       -0.11000000       1.29200000       1.43140000
H       -1.15880000      -0.19560000      -0.22770000
H       -0.62060000       1.28130000      -0.98020000
H        2.24450000      -0.55810000      -0.55560000
H        4.20410000      -1.94280000      -3.07640000
H        4.13530000      -1.25340000      -1.44830000
H        3.23770000      -4.08660000      -2.24650000
H        4.71900000      -3.69000000      -1.35680000
H        3.13710000      -3.42900000      -0.59990000
H        0.72050000      -1.36960000      -3.72630000
