14
Properties=species:S:1:pos:R:3 gdb_101995=T pbc="F F F"
O        0.10860000       1.41150000      -0.23440000
C        0.07500000       0.02890000       0.02120000
C       -1.38500000      -0.51410000       0.05060000
C       -2.10640000      -0.08070000      -1.24150000
O       -3.06400000       0.63720000      -1.25140000
C       -1.40140000      -1.95850000       0.17300000
C       -1.39110000      -3.16530000       0.24220000
C       -1.38410000      -4.52770000       0.32880000
N       -1.37530000      -5.68700000       0.40250000
H       -0.26410000       1.88000000       0.52000000
H        0.61870000      -0.45040000      -0.79850000
H        0.57500000      -0.24690000       0.95900000
H       -1.93170000      -0.05970000       0.88610000
H       -1.65130000      -0.48790000      -2.16920000
