23
Properties=species:S:1:pos:R:3 gdb_99031=T pbc="F F F"
C        0.24540000       1.35130000       0.00540000
O        0.01990000      -0.06320000      -0.00000000
C       -1.27640000      -0.44410000       0.01310000
O       -2.18840000       0.34610000       0.02780000
C       -1.36370000      -1.95940000       0.00550000
C       -2.77390000      -2.59030000       0.01460000
C       -3.56600000      -2.17190000      -1.23850000
C       -2.58980000      -4.12010000       0.00420000
C       -3.54320000      -2.18640000       1.28660000
H        1.32790000       1.47930000      -0.00630000
H       -0.20410000       1.81850000      -0.87460000
H       -0.18390000       1.80850000       0.90060000
H       -0.80180000      -2.30310000      -0.87230000
H       -0.78650000      -2.31240000       0.86960000
H       -3.03730000      -2.46460000      -2.15350000
H       -4.54460000      -2.66360000      -1.25200000
H       -3.72330000      -1.09210000      -1.26290000
H       -2.03110000      -4.46250000       0.88280000
H       -3.56180000      -4.62440000       0.01030000
H       -2.04760000      -4.45240000      -0.88850000
H       -3.69950000      -1.10700000       1.32650000
H       -4.52160000      -2.67800000       1.31190000
H       -2.99840000      -2.49010000       2.18850000
