21
Properties=species:S:1:pos:R:3 gdb_39311=T pbc="F F F"
C        0.05070000       1.51980000      -0.32620000
C        1.31950000       0.75600000      -0.06220000
C        2.03890000       0.88550000       1.27350000
C        1.98400000      -0.43490000       2.05710000
C        0.55080000      -0.83750000       2.35980000
O       -0.10910000       0.09460000       3.25320000
C       -1.19890000       0.28510000       2.33090000
C       -0.51800000      -0.58330000       1.24800000
C       -0.01870000       0.03450000      -0.05150000
H       -0.28250000       2.21250000       0.43980000
H       -0.16240000       1.84960000      -1.33730000
H        1.96070000       0.56020000      -0.91650000
H        3.07730000       1.19030000       1.11350000
H        1.57540000       1.66510000       1.88770000
H        2.46220000      -1.23920000       1.48250000
H        2.52800000      -0.34800000       3.00500000
H        0.51550000      -1.85380000       2.77470000
H       -2.13980000      -0.12780000       2.71800000
H       -1.35470000       1.34340000       2.09270000
H       -1.09600000      -1.47750000       1.00960000
H       -0.22660000      -0.57330000      -0.92640000
