18
Properties=species:S:1:pos:R:3 gdb_5568=T pbc="F F F"
C        0.18790000       1.47440000       0.37630000
C        0.02660000       0.01350000      -0.07810000
C       -1.39850000      -0.45840000      -0.06770000
C       -2.20480000      -0.72600000      -1.13660000
C       -2.01200000      -0.68130000      -2.61070000
O       -3.44320000      -1.11710000      -0.70620000
C       -3.42270000      -1.09650000       0.65300000
C       -2.20630000      -0.70300000       1.10050000
H        1.24120000       1.77280000       0.37220000
H       -0.36250000       2.15150000      -0.28440000
H       -0.19880000       1.61660000       1.39040000
H        0.44670000      -0.10080000      -1.08350000
H        0.62850000      -0.63150000       0.57500000
H       -0.98620000      -0.39320000      -2.84990000
H       -2.20780000      -1.65690000      -3.07020000
H       -2.68570000       0.04270000      -3.08390000
H       -4.33880000      -1.38790000       1.13980000
H       -1.90310000      -0.60020000       2.13150000
