18
Properties=species:S:1:pos:R:3 gdb_23520=T pbc="F F F"
C       -0.31900000       1.52200000       0.00640000
C        0.00930000       0.03440000       0.04580000
C        1.20520000      -0.61250000      -0.77090000
C        2.20040000      -0.11530000       0.32490000
O        2.55770000       1.24050000       0.28720000
C        0.94300000      -0.61930000       1.14450000
C        1.00510000      -1.78210000       0.18220000
N        0.90620000      -3.03550000       0.24920000
O        1.03650000      -3.62420000      -1.03580000
H        0.55570000       2.15640000       0.11990000
H       -0.80560000       1.76300000      -0.94550000
H       -1.03500000       1.75820000       0.80210000
H       -0.91740000      -0.53440000      -0.08170000
H        1.35670000      -0.63700000      -1.84710000
H        3.09000000      -0.74530000       0.44760000
H        3.11370000       1.42150000       1.05140000
H        0.80180000      -0.64830000       2.22370000
H        0.93750000      -4.56020000      -0.83180000
