17
Properties=species:S:1:pos:R:3 gdb_68964=T pbc="F F F"
C       -0.06470000       1.52730000      -0.08120000
C        0.00600000       0.02850000      -0.00880000
C       -0.79710000      -0.78470000       0.95920000
C        0.72300000      -0.81670000       1.10290000
N        1.41170000      -1.89090000       0.42320000
C        1.18460000      -1.74390000      -0.83110000
N        0.36120000      -0.69640000      -1.20730000
C        1.33380000      -0.24750000       2.26580000
C        1.82950000       0.26680000       3.23400000
H        0.84080000       1.94400000      -0.53590000
H       -0.93140000       1.86050000      -0.66380000
H       -0.15400000       1.94500000       0.92440000
H       -1.32730000      -0.23790000       1.73040000
H       -1.28030000      -1.69170000       0.61060000
H        1.57410000      -2.41460000      -1.59000000
H        0.56100000      -0.18270000      -2.05340000
H        2.27510000       0.70360000       4.09290000
