22
Properties=species:S:1:pos:R:3 gdb_96157=T pbc="F F F"
C       -0.02970000       1.54430000       0.10970000
C        0.00150000       0.02600000      -0.02980000
C        0.58350000      -0.41060000      -1.38460000
N        0.12860000      -1.74760000      -1.76460000
C        1.10030000      -2.67330000      -2.33930000
C        0.57130000      -2.89080000      -0.96330000
C        1.42180000      -2.70500000       0.27940000
C        0.72480000      -1.83720000       1.33870000
O        0.77990000      -0.45090000       1.06510000
H        0.97430000       1.96250000      -0.01760000
H       -0.68910000       1.98930000      -0.64080000
H       -0.38910000       1.82190000       1.10340000
H       -1.02230000      -0.37560000       0.04620000
H        0.24560000       0.27780000      -2.16840000
H        1.67990000      -0.31710000      -1.32350000
H        0.75410000      -3.27420000      -3.17660000
H        2.13400000      -2.33740000      -2.42050000
H       -0.21680000      -3.63410000      -0.83930000
H        1.63230000      -3.69240000       0.70930000
H        2.38980000      -2.25000000       0.04560000
H       -0.32080000      -2.16690000       1.46370000
H        1.22790000      -1.95650000       2.30390000
