17
Properties=species:S:1:pos:R:3 gdb_44052=T pbc="F F F"
O       -0.00270000       0.07580000      -0.61180000
C       -0.02800000       1.19180000      -0.19190000
C       -1.16870000       2.11300000       0.36830000
C       -0.08420000       3.19210000       0.63050000
C        0.71890000       3.26220000       1.96410000
N        1.68950000       2.25950000       1.40360000
C        1.02450000       2.30240000       0.09120000
C        1.27090000       3.38900000      -1.00000000
N        0.22810000       4.25310000      -0.35410000
H       -1.94420000       2.37130000      -0.35950000
H       -1.65810000       1.70280000       1.25720000
H        1.12650000       4.26270000       2.14010000
H        0.22270000       2.90540000       2.87340000
H        2.67420000       2.49590000       1.43360000
H        2.26760000       3.84400000      -0.98940000
H        1.05380000       3.05970000      -2.02290000
H       -0.53880000       4.53020000      -0.95560000
