13
Properties=species:S:1:pos:R:3 gdb_5150=T pbc="F F F"
N       -0.69770000      -0.27270000      -1.35620000
C       -0.29370000       0.35560000      -0.47480000
C        0.23500000       1.15670000       0.62740000
C        1.51200000       1.86660000       0.27090000
C        2.21160000       1.85620000      -0.90680000
N        3.29730000       2.67360000      -0.68380000
C        3.20530000       3.13150000       0.59530000
N        2.13860000       2.66380000       1.20110000
H       -0.52810000       1.88270000       0.93340000
H        0.39540000       0.50290000       1.49330000
H        2.04160000       1.36090000      -1.84760000
H        4.02260000       2.88870000      -1.34730000
H        3.93830000       3.79690000       1.02590000
