19
Properties=species:S:1:pos:R:3 gdb_99980=T pbc="F F F"
C       -0.01580000       1.59180000       0.11770000
C       -0.03040000       0.06290000       0.00270000
O        0.64180000      -0.53450000       1.10250000
C       -1.47210000      -0.46900000      -0.03660000
O       -2.02350000      -0.21070000       1.25470000
C        0.71930000      -0.44090000      -1.25990000
O        0.02880000      -0.07270000      -2.45380000
C        2.11620000      -0.00900000      -1.29190000
C        3.24990000       0.38210000      -1.37210000
H        1.00800000       1.94550000       0.25520000
H       -0.43910000       2.05990000      -0.77750000
H       -0.61760000       1.90370000       0.97480000
H        0.00460000      -0.52730000       1.82880000
H       -2.04690000       0.02550000      -0.82790000
H       -1.45200000      -1.54900000      -0.24130000
H       -2.84860000      -0.69570000       1.33860000
H        0.69130000      -1.53640000      -1.22160000
H        0.36020000       0.78870000      -2.72800000
H        4.25860000       0.71020000      -1.42780000
