20
Properties=species:S:1:pos:R:3 gdb_118926=T pbc="F F F"
C        0.07040000       1.56240000       0.03450000
C        0.00540000       0.03800000       0.04910000
N        0.51770000      -0.50110000      -1.21680000
C        0.64560000      -1.95080000      -1.29160000
C       -0.64630000      -2.76100000      -1.14480000
C        1.58600000      -2.39610000      -2.43730000
O        2.58460000      -2.84790000      -1.46550000
C        1.81020000      -2.45500000      -0.40980000
O        2.06280000      -2.53290000       0.75040000
H        1.09620000       1.90290000      -0.13030000
H       -0.55610000       1.97820000      -0.76360000
H       -0.28810000       1.97210000       0.98330000
H        0.63290000      -0.35800000       0.85330000
H       -1.02780000      -0.28180000       0.26720000
H       -0.06880000      -0.17990000      -1.98330000
H       -1.36660000      -2.46790000      -1.91720000
H       -0.45910000      -3.83510000      -1.24240000
H       -1.10260000      -2.58980000      -0.16670000
H        1.24530000      -3.23090000      -3.05330000
H        1.98240000      -1.58210000      -3.04570000
