19
Properties=species:S:1:pos:R:3 gdb_39135=T pbc="F F F"
C       -0.04060000       1.46210000      -0.02300000
C        1.30480000       0.78850000      -0.01670000
O        1.99770000       0.67600000       1.19950000
C        1.10520000       0.11310000       2.15620000
C        0.06530000      -0.72030000       1.37780000
C        0.23570000      -2.26180000       1.38470000
O       -0.99900000      -2.44360000       2.10280000
C       -1.26250000      -1.02730000       2.10940000
C        0.06270000      -0.05760000       0.01670000
H       -0.37170000       1.99980000       0.85900000
H       -0.36740000       1.90090000      -0.95950000
H        1.97620000       0.86210000      -0.86350000
H        1.69400000      -0.47720000       2.86420000
H        0.59710000       0.90740000       2.72420000
H        0.21150000      -2.74010000       0.39660000
H        1.10020000      -2.64400000       1.94280000
H       -1.34510000      -0.62920000       3.13020000
H       -2.17350000      -0.77120000       1.55370000
H       -0.27560000      -0.63250000      -0.83760000
