17
Properties=species:S:1:pos:R:3 gdb_23557=T pbc="F F F"
O       -0.09090000       1.30070000       0.12910000
N        0.01550000      -0.09580000      -0.01920000
C       -1.12560000      -0.64150000      -0.10080000
C       -2.55550000      -0.23150000       0.01370000
C       -3.37390000      -0.89930000      -1.07690000
C       -2.93940000      -1.73630000       0.08140000
C       -1.46960000      -2.10570000      -0.08970000
C       -0.80010000      -3.23550000      -0.77410000
N       -0.77600000      -3.11540000       0.69790000
H        0.83220000       1.56810000       0.19180000
H       -2.92860000       0.60780000       0.58320000
H       -4.41960000      -0.60820000      -1.08530000
H       -2.94440000      -1.05870000      -2.06190000
H       -3.61710000      -2.21780000       0.77280000
H       -1.38970000      -4.06600000      -1.15270000
H        0.10690000      -3.01650000      -1.33130000
H        0.11910000      -2.74030000       1.00580000
