21
Properties=species:S:1:pos:R:3 gdb_105698=T pbc="F F F"
O       -0.07790000       1.46470000      -0.54330000
C       -0.01510000       0.12380000      -0.07930000
C       -1.38400000      -0.51790000       0.04590000
C       -2.36600000       0.20430000       0.95710000
C       -1.98220000       0.14640000       2.45000000
C       -2.96100000       0.92070000       3.30070000
O       -3.60080000       0.46260000       4.21220000
C       -1.93400000      -1.18130000      -1.20050000
C       -1.45480000      -2.02170000      -0.04230000
H       -0.52570000       1.45220000      -1.39630000
H        0.62010000      -0.49770000      -0.73020000
H        0.48440000       0.17810000       0.89430000
H       -2.43330000       1.25190000       0.64090000
H       -3.36330000      -0.23260000       0.83060000
H       -1.93720000      -0.88380000       2.81400000
H       -0.99440000       0.60660000       2.59020000
H       -3.06630000       1.99360000       3.01150000
H       -3.00170000      -1.12430000      -1.38400000
H       -1.32840000      -1.16990000      -2.10180000
H       -0.53030000      -2.57730000      -0.16210000
H       -2.20010000      -2.52930000       0.56100000
