17
Properties=species:S:1:pos:R:3 gdb_56836=T pbc="F F F"
N        0.01030000       1.40360000      -0.04650000
C        0.02010000      -0.05820000      -0.15890000
C        0.70420000      -0.55250000      -1.37660000
N        1.25130000      -0.90130000      -2.33390000
C        0.68610000      -0.65480000       1.08260000
C       -0.01600000      -0.67310000       2.46740000
C       -0.95160000      -1.81830000       2.01000000
C        0.49310000      -2.12580000       1.54650000
O        0.96790000      -1.70130000       2.88450000
H        0.96500000       1.75250000      -0.02550000
H       -0.42680000       1.81390000      -0.86670000
H       -1.02180000      -0.38590000      -0.22490000
H        1.73070000      -0.33990000       1.15410000
H       -0.20530000       0.15370000       3.15030000
H       -1.30940000      -2.45650000       2.81780000
H       -1.72570000      -1.61790000       1.26660000
H        0.91450000      -3.03930000       1.12790000
