21
Properties=species:S:1:pos:R:3 gdb_39812=T pbc="F F F"
C        0.11270000       1.37900000      -0.06080000
C        1.38080000       0.55020000      -0.10590000
C        0.04670000      -0.11570000      -0.00240000
C       -0.60620000      -0.95810000       1.11100000
C       -1.78390000      -1.17560000       0.11330000
C       -0.71700000      -0.99770000      -1.00180000
O       -0.05940000      -2.23570000      -1.24550000
C        0.73190000      -2.68210000      -0.14250000
C        0.15240000      -2.29260000       1.23800000
H       -0.09700000       1.93780000       0.84620000
H       -0.20490000       1.87690000      -0.97200000
H        1.91530000       0.48440000      -1.04860000
H        2.02320000       0.55690000       0.76950000
H       -0.81220000      -0.49170000       2.07770000
H       -2.30220000      -2.13750000       0.13670000
H       -2.50200000      -0.35250000       0.13230000
H       -1.00510000      -0.59440000      -1.97550000
H        0.81920000      -3.76730000      -0.24860000
H        1.74090000      -2.25960000      -0.23410000
H        0.97960000      -2.21440000       1.95280000
H       -0.53010000      -3.06240000       1.61650000
