18
Properties=species:S:1:pos:R:3 gdb_98812=T pbc="F F F"
C        0.07770000       1.29630000       0.22800000
O       -0.03350000      -0.12340000       0.09280000
C       -1.28670000      -0.60450000      -0.02200000
N       -2.31170000       0.14810000      -0.01180000
N       -1.25400000      -1.97890000      -0.14480000
C       -2.35710000      -2.93290000      -0.29440000
C       -1.28600000      -4.06390000      -0.33710000
C       -0.24060000      -2.96350000      -0.17750000
N        1.01570000      -2.97350000      -0.10750000
H        1.14660000       1.49720000       0.30670000
H       -0.34700000       1.80130000      -0.64290000
H       -0.44690000       1.64100000       1.12240000
H       -3.17110000      -0.38600000      -0.10910000
H       -3.03510000      -2.95770000       0.56470000
H       -2.93440000      -2.79540000      -1.21430000
H       -1.32390000      -4.77190000       0.49190000
H       -1.22370000      -4.60990000      -1.27940000
H        1.38150000      -2.02740000      -0.00050000
