17
Properties=species:S:1:pos:R:3 gdb_29604=T pbc="F F F"
C       -0.02150000       1.50360000       0.09960000
C       -0.00960000       0.01150000      -0.00760000
C       -0.02360000      -0.75000000      -1.13310000
O       -0.00550000      -2.07070000      -0.83540000
C        0.02080000      -2.18130000       0.52570000
C        0.01960000      -0.93500000       1.08110000
N        0.04130000      -0.56330000       2.42530000
C        0.07030000      -1.40740000       3.50190000
N        0.08080000      -2.67890000       3.38760000
H        0.86790000       1.88490000       0.61770000
H       -0.04300000       1.96630000      -0.89060000
H       -0.89920000       1.86860000       0.64840000
H       -0.04550000      -0.49870000      -2.18120000
H        0.03800000      -3.16760000       0.94610000
H        0.03480000       0.42340000       2.61830000
H        0.08280000      -0.85240000       4.44750000
H        0.10270000      -3.11280000       4.30690000
