17
Properties=species:S:1:pos:R:3 gdb_15374=T pbc="F F F"
O        0.01900000       1.13950000      -0.76130000
C       -0.01980000       0.06120000       0.16510000
C       -1.40350000      -0.53380000       0.11420000
C       -1.75930000      -1.51450000      -0.98420000
C       -1.62890000      -1.97760000       0.44280000
O       -0.49800000      -2.72550000       0.82710000
C       -0.51190000      -4.03370000       0.48630000
N        0.43930000      -4.78260000       0.83990000
H        0.88530000       1.55250000      -0.69620000
H        0.72510000      -0.70870000      -0.07640000
H        0.19080000       0.40910000       1.18860000
H       -2.18830000       0.14730000       0.42920000
H       -2.74530000      -1.47640000      -1.43320000
H       -0.95870000      -1.79000000      -1.66230000
H       -2.52680000      -2.24440000       0.99530000
H       -1.39640000      -4.32050000      -0.09700000
H        0.27790000      -5.72930000       0.50210000
