16
Properties=species:S:1:pos:R:3 gdb_42575=T pbc="F F F"
O       -0.01250000       0.02860000       0.14040000
C       -0.01060000       1.22870000       0.03180000
C       -1.18320000       2.14720000      -0.04900000
C       -1.03510000       3.53010000       0.63330000
C       -0.76490000       3.35850000      -0.83340000
N        0.71750000       3.47320000      -0.59690000
C        0.44490000       3.86800000       0.84380000
C        1.40090000       2.77650000       1.35610000
C        1.21010000       2.14400000      -0.05470000
H       -2.18600000       1.74810000      -0.12650000
H       -1.89210000       3.95790000       1.13890000
H       -1.24520000       3.73580000      -1.72710000
H        0.62940000       4.91180000       1.11020000
H        2.41290000       3.15980000       1.50200000
H        1.10490000       2.17900000       2.22060000
H        2.06260000       1.69680000      -0.56510000
