17
Properties=species:S:1:pos:R:3 gdb_85728=T pbc="F F F"
C       -0.76150000       1.32460000       0.22190000
C       -0.09610000      -0.02650000       0.01490000
C        0.70400000      -0.23200000      -1.30720000
C        1.97740000      -0.50850000      -0.44070000
C        3.11190000       0.39020000      -0.65960000
N        3.99020000       1.11030000      -0.87090000
N        1.17300000      -0.22630000       0.75180000
C        1.42020000      -0.70510000       2.00230000
O        2.47530000      -1.18900000       2.34600000
H       -0.05460000       2.13830000       0.03530000
H       -1.61070000       1.43420000      -0.46080000
H       -1.13740000       1.42500000       1.24480000
H       -0.80960000      -0.83660000       0.20720000
H        0.39240000      -1.07590000      -1.92130000
H        0.77900000       0.66370000      -1.92350000
H        2.33720000      -1.54260000      -0.46910000
H        0.54530000      -0.58840000       2.67290000
