21
Properties=species:S:1:pos:R:3 gdb_40788=T pbc="F F F"
C        0.27320000       1.52290000       0.03370000
O        1.16790000       0.44420000      -0.24310000
C       -0.20780000       0.13590000       0.00310000
C       -0.51680000      -0.64280000       1.25800000
C       -2.00760000      -0.56210000       1.67720000
C       -2.27450000      -1.84950000       2.49100000
C       -1.31080000      -2.88010000       1.91780000
C       -1.23590000      -2.99860000       0.41600000
C       -0.23480000      -2.14010000       1.15520000
H        0.42190000       2.01700000       0.99360000
H        0.06950000       2.19050000      -0.80260000
H       -0.74880000      -0.19230000      -0.88720000
H        0.11240000      -0.23680000       2.06050000
H       -2.22890000       0.34730000       2.24150000
H       -2.64390000      -0.53660000       0.78530000
H       -2.03780000      -1.68520000       3.54920000
H       -3.32410000      -2.15940000       2.44070000
H       -1.07300000      -3.75410000       2.51420000
H       -0.86920000      -3.93540000       0.01100000
H       -2.00360000      -2.53290000      -0.19430000
H        0.80000000      -2.46180000       1.17400000
