14
Properties=species:S:1:pos:R:3 gdb_5503=T pbc="F F F"
N        0.05040000       1.40520000       0.14980000
C        0.02990000       0.00900000       0.03420000
C       -1.07790000      -0.80670000       0.02030000
N       -0.62940000      -2.12020000      -0.01770000
C        0.71820000      -2.15840000      -0.03740000
C        1.18650000      -0.84860000      -0.00110000
C        2.58660000      -0.47050000       0.02040000
O        3.52260000      -1.24570000      -0.02320000
H        0.78780000       1.84180000      -0.38690000
H       -0.83440000       1.83370000      -0.08740000
H       -2.13010000      -0.57570000       0.03960000
H       -1.22980000      -2.92620000      -0.03580000
H        1.27420000      -3.08040000      -0.07150000
H        2.77360000       0.62640000       0.08830000
