14
Properties=species:S:1:pos:R:3 gdb_17511=T pbc="F F F"
N        0.05060000      -1.17370000       0.04700000
C        0.02550000      -0.01910000      -0.00260000
C       -0.04470000       1.42070000      -0.06280000
C       -1.12750000       2.21000000       0.74720000
C       -0.93170000       3.30950000      -0.29070000
C        0.56740000       3.25570000      -0.67860000
N        1.23000000       2.18740000       0.07320000
C       -0.40790000       2.32430000      -1.31700000
H       -2.10970000       1.74140000       0.65700000
H       -0.89690000       2.40560000       1.80060000
H       -1.54520000       4.18310000      -0.46420000
H        1.10340000       4.09240000      -1.10570000
H        1.44190000       2.41920000       1.04610000
H       -0.65790000       2.08810000      -2.33980000
