23
Properties=species:S:1:pos:R:3 gdb_68355=T pbc="F F F"
C       -0.00780000       1.61010000       0.01170000
C        0.05250000       0.08730000      -0.05180000
C        1.23520000      -0.53670000      -0.85830000
C        1.39770000      -1.60580000       0.26480000
C        0.63250000      -0.62480000       1.20950000
C        0.64270000      -2.88580000       0.02820000
C       -0.55900000      -2.98940000      -0.54230000
C       -1.38020000      -1.86600000      -1.13360000
C       -1.32990000      -0.48280000      -0.44750000
H        0.94250000       2.03140000       0.35680000
H       -0.22880000       2.03960000      -0.97280000
H       -0.79150000       1.94690000       0.70130000
H        1.04510000      -0.89370000      -1.87310000
H        2.09410000       0.14080000      -0.88380000
H        2.42710000      -1.82840000       0.55460000
H        1.31900000       0.02950000       1.75650000
H       -0.07770000      -1.06910000       1.91190000
H        1.11910000      -3.79520000       0.38810000
H       -0.99330000      -3.98210000      -0.64150000
H       -1.09310000      -1.74820000      -2.18880000
H       -2.43020000      -2.17950000      -1.16730000
H       -1.95190000      -0.50720000       0.45690000
H       -1.81950000       0.22520000      -1.12830000
