22
Properties=species:S:1:pos:R:3 gdb_101587=T pbc="F F F"
C       -0.35340000       1.51160000      -0.70630000
C       -0.23640000       0.20780000       0.08670000
C       -1.46180000      -0.70140000      -0.05540000
O       -1.71140000      -1.01230000      -1.43820000
C       -1.34060000      -1.97330000       0.79660000
C       -2.59660000      -2.84290000       0.94320000
O       -2.83490000      -3.42600000       1.98820000
N       -3.38080000      -2.92530000      -0.16550000
C       -4.59480000      -3.71450000      -0.19820000
H        0.55570000       2.11240000      -0.61180000
H       -0.52410000       1.30920000      -1.76680000
H       -1.19300000       2.11570000      -0.34560000
H        0.65430000      -0.35220000      -0.23520000
H       -0.08750000       0.42510000       1.15100000
H       -2.35570000      -0.14500000       0.25210000
H       -0.92650000      -1.45650000      -1.78130000
H       -0.53570000      -2.60150000       0.38750000
H       -1.04110000      -1.71460000       1.81520000
H       -3.09490000      -2.39390000      -0.97680000
H       -5.47090000      -3.09110000      -0.41090000
H       -4.53930000      -4.50250000      -0.95840000
H       -4.71440000      -4.17540000       0.78290000
