17
Properties=species:S:1:pos:R:3 gdb_45477=T pbc="F F F"
N       -0.06860000       1.29530000      -0.32990000
C       -0.00970000       0.06750000      -0.05180000
O        1.14190000      -0.65460000       0.13770000
C        0.80220000      -1.91740000       0.75140000
C        0.81110000      -1.74470000       2.27520000
C       -0.50330000      -0.97360000       2.57320000
C       -1.42840000      -1.33550000       1.41320000
C       -0.67780000      -2.10950000       0.38880000
N       -1.15570000      -0.76750000       0.05820000
H        0.87200000       1.68870000      -0.36050000
H        1.48840000      -2.67140000       0.36630000
H        0.77830000      -2.73430000       2.74500000
H        1.71250000      -1.23280000       2.62120000
H       -0.94860000      -1.27650000       3.52410000
H       -0.34090000       0.10800000       2.62530000
H       -2.48650000      -1.48550000       1.59770000
H       -1.04560000      -2.95200000      -0.18540000
