15
Properties=species:S:1:pos:R:3 gdb_52504=T pbc="F F F"
C       -0.21680000       1.18920000      -0.19330000
C       -0.09310000      -0.24670000      -0.02590000
C        0.00780000      -1.44450000       0.11500000
C        0.11820000      -2.78940000       0.27320000
C        0.21660000      -3.98760000       0.41440000
C        0.33190000      -5.42700000       0.57740000
O       -0.94800000      -6.08580000       0.64640000
C       -1.54830000      -6.35730000      -0.53250000
O       -2.62070000      -6.87440000      -0.59960000
H        0.09950000       1.50030000      -1.19510000
H       -1.25470000       1.51180000      -0.05450000
H        0.40020000       1.72590000       0.53580000
H        0.93070000      -5.86090000      -0.23500000
H        0.82800000      -5.67610000       1.51960000
H       -0.93750000      -6.06120000      -1.40730000
