22
Properties=species:S:1:pos:R:3 gdb_109792=T pbc="F F F"
C       -0.52440000       0.58900000      -1.86540000
N        0.06640000      -0.33040000      -0.90140000
C        1.52080000      -0.45560000      -0.79800000
C        2.48280000       0.32120000      -1.66870000
O        2.49190000      -0.14670000      -3.01310000
C        0.72230000       0.16760000       0.30860000
C        0.80730000       1.61640000       0.67910000
C       -0.13520000       2.15800000       1.73050000
C        1.32590000       1.98550000       2.05020000
H       -0.04600000       1.57480000      -1.94240000
H       -0.48680000       0.12540000      -2.85470000
H       -1.57290000       0.74840000      -1.59490000
H        1.84400000      -1.49070000      -0.65460000
H        2.22030000       1.37860000      -1.73400000
H        3.48840000       0.26670000      -1.22120000
H        2.66470000      -1.09400000      -2.99220000
H        0.52500000      -0.46170000       1.17910000
H        1.06340000       2.30700000      -0.11530000
H       -0.52310000       3.16230000       1.60260000
H       -0.83720000       1.46320000       2.17960000
H        1.60690000       1.17650000       2.71670000
H        1.94600000       2.87010000       2.14110000
