23
Properties=species:S:1:pos:R:3 gdb_118144=T pbc="F F F"
C       -0.17870000       1.51550000       0.10000000
C        0.01270000      -0.00460000      -0.02060000
C        0.71860000      -0.41000000      -1.32600000
C       -0.06430000      -0.10510000      -2.59810000
O        0.66680000      -0.64940000      -3.68790000
C        0.78580000      -0.54150000       1.18440000
C        0.09390000      -0.51450000       2.56740000
O        0.26110000      -1.93630000       2.73290000
C        0.82110000      -2.07080000       1.41120000
H        0.78570000       2.03460000       0.04580000
H       -0.81570000       1.91260000      -0.69530000
H       -0.64630000       1.78100000       1.05390000
H       -0.98180000      -0.47690000      -0.00900000
H        1.69670000       0.08460000      -1.38870000
H        0.91680000      -1.48860000      -1.31930000
H       -1.07000000      -0.55320000      -2.52990000
H       -0.19870000       0.98040000      -2.71950000
H        0.20130000      -0.43210000      -4.50070000
H        1.78460000      -0.09340000       1.20920000
H        0.59490000       0.05290000       3.36080000
H       -0.96740000      -0.22730000       2.54390000
H        0.16440000      -2.64920000       0.74560000
H        1.80920000      -2.54520000       1.43050000
