19
Properties=species:S:1:pos:R:3 gdb_38190=T pbc="F F F"
C       -0.06800000       1.52300000      -0.00980000
C       -0.48550000       1.84600000       1.46710000
C        0.50710000       0.88120000       2.11990000
C        1.84680000       0.90230000       2.89810000
C        1.66940000      -0.47990000       2.21350000
O        0.25070000      -0.47530000       2.68680000
C        1.18700000       0.23110000       0.91420000
C       -0.01360000      -0.04480000      -0.01220000
C        1.50890000       1.46740000       0.03610000
H       -0.57450000       2.06830000      -0.80750000
H       -0.31820000       2.88880000       1.75080000
H       -1.52820000       1.59210000       1.67510000
H        2.64310000       1.56180000       2.54680000
H        1.76170000       0.87870000       3.98480000
H        2.22700000      -1.40440000       2.37040000
H       -0.85820000      -0.59290000       0.40530000
H        0.26660000      -0.44090000      -0.99140000
H        1.93060000       1.23090000      -0.94390000
H        2.04140000       2.31140000       0.48110000
