14
Properties=species:S:1:pos:R:3 gdb_125014=T pbc="F F F"
C        0.06690000       1.50910000       0.00230000
C       -0.04620000       0.02920000      -0.04580000
C       -1.10310000      -0.83220000       0.05630000
N       -2.44680000      -0.56080000       0.30180000
C       -0.48540000      -2.11450000      -0.06820000
N        0.82500000      -2.02720000      -0.23020000
O        1.09230000      -0.68770000      -0.22570000
C       -1.15650000      -3.36690000      -0.03340000
N       -1.78180000      -4.34020000      -0.00210000
H        0.96270000       1.80690000       0.55430000
H        0.13010000       1.95120000      -0.99900000
H       -0.80540000       1.93120000       0.50850000
H       -2.81500000       0.21920000      -0.22540000
H       -3.04280000      -1.37010000       0.18730000
