19
Properties=species:S:1:pos:R:3 gdb_74560=T pbc="F F F"
C       -0.02910000       1.49590000       0.04030000
C        0.04870000       0.00460000      -0.02590000
C        0.04940000      -0.76350000      -1.12130000
C        0.04650000      -2.21410000      -0.78980000
C        0.05880000      -2.28090000       0.72050000
C        0.09470000      -0.84450000       1.23450000
C       -1.18240000      -2.74670000      -0.03230000
C       -2.42350000      -2.03610000       0.03240000
C       -3.47590000      -1.45730000       0.10890000
H        0.80890000       1.91350000       0.61350000
H       -0.01810000       1.94410000      -0.95680000
H       -0.94640000       1.82120000       0.54730000
H        0.00620000      -0.39420000      -2.13960000
H        0.57900000      -2.92540000      -1.41180000
H        0.61710000      -3.04460000       1.24850000
H        1.00820000      -0.65200000       1.81320000
H       -0.75020000      -0.61950000       1.89880000
H       -1.29060000      -3.82790000      -0.07080000
H       -4.40590000      -0.94820000       0.16140000
