18
Properties=species:S:1:pos:R:3 gdb_64738=T pbc="F F F"
C       -0.18910000       1.69910000       0.24410000
C        0.02990000       0.20060000       0.08010000
C       -1.29400000      -0.55460000      -0.22600000
C       -1.80450000      -0.25360000      -1.55710000
C       -2.18240000      -0.00280000      -2.67080000
N        1.16380000      -0.16370000      -0.82110000
C        1.79400000      -1.06320000       0.17840000
C        0.79860000      -0.51790000       1.21320000
O        0.66410000      -0.59350000       2.39710000
H        0.76570000       2.20530000       0.40250000
H       -0.65580000       2.11660000      -0.65330000
H       -0.84020000       1.89800000       1.10150000
H       -1.13190000      -1.63680000      -0.13740000
H       -2.03630000      -0.29200000       0.53700000
H       -2.53840000       0.21750000      -3.64680000
H        0.87330000      -0.61260000      -1.68280000
H        1.67320000      -2.14270000       0.00970000
H        2.85240000      -0.86010000       0.37460000
