22
Properties=species:S:1:pos:R:3 gdb_111679=T pbc="F F F"
C       -0.33070000       1.45540000      -0.17090000
C       -0.08790000      -0.04870000      -0.09160000
C        0.67430000      -0.65910000      -1.29790000
C        1.51230000      -1.81280000      -0.69570000
C        1.54560000      -1.53870000       0.80530000
C        2.05250000      -0.22960000       1.29550000
C        2.95300000       0.70530000       0.50750000
O        4.31990000       0.36340000       0.70270000
N        0.59940000      -0.46140000       1.15210000
H        0.60540000       2.01230000      -0.27950000
H       -0.96140000       1.69430000      -1.03330000
H       -0.83680000       1.81180000       0.73070000
H       -1.06660000      -0.54190000      -0.02490000
H       -0.01800000      -1.01500000      -2.06630000
H        1.30820000       0.09090000      -1.77970000
H        1.02870000      -2.77920000      -0.86960000
H        2.51430000      -1.87460000      -1.13180000
H        1.56910000      -2.39980000       1.46930000
H        2.31430000      -0.19400000       2.35630000
H        2.79260000       0.64250000      -0.56850000
H        2.76140000       1.74780000       0.80700000
H        4.51420000       0.44850000       1.64190000
