18
Properties=species:S:1:pos:R:3 gdb_14764=T pbc="F F F"
O       -0.10550000       1.42650000       0.01040000
C        0.01090000       0.01270000       0.00210000
C       -1.39810000      -0.56620000       0.01220000
C       -1.40480000      -2.08740000       0.00430000
O       -2.74890000      -2.52570000       0.01460000
C       -2.85540000      -3.93440000       0.00820000
C       -4.25750000      -4.33080000       0.01910000
C       -5.40440000      -4.68610000       0.02810000
H        0.77990000       1.80130000       0.00430000
H        0.55400000      -0.33700000      -0.89170000
H        0.57050000      -0.34620000       0.88190000
H       -1.92860000      -0.20590000       0.89960000
H       -1.94500000      -0.19660000      -0.86130000
H       -0.88450000      -2.47510000      -0.88950000
H       -0.86790000      -2.48440000       0.88400000
H       -2.35860000      -4.35630000      -0.88290000
H       -2.34210000      -4.36550000       0.88560000
H       -6.42120000      -4.99220000       0.03690000
