20
Properties=species:S:1:pos:R:3 gdb_91015=T pbc="F F F"
C        0.10490000       1.54290000       0.10030000
C       -0.07270000       0.05720000      -0.01010000
C       -0.93520000      -0.73080000       0.88420000
N        0.52860000      -0.92330000       1.00730000
C        1.01400000      -1.75870000      -0.16390000
C        0.11870000      -2.88070000      -0.75450000
C       -0.38800000      -1.87100000      -1.84940000
O       -1.76600000      -1.58180000      -1.93260000
C        0.47290000      -0.75250000      -1.20490000
H        1.11460000       1.84870000      -0.19570000
H       -0.60890000       2.06510000      -0.54840000
H       -0.06220000       1.87620000       1.12870000
H       -1.33730000      -0.21100000       1.74990000
H       -1.58090000      -1.50960000       0.49900000
H        2.07480000      -1.97700000      -0.04690000
H        0.69130000      -3.71610000      -1.16640000
H       -0.64980000      -3.28500000      -0.09160000
H        0.00990000      -2.13890000      -2.83790000
H       -2.20180000      -2.32040000      -2.36940000
H        1.12190000      -0.18100000      -1.86830000
