19
Properties=species:S:1:pos:R:3 gdb_14985=T pbc="F F F"
C       -0.01590000       1.56690000       0.05270000
C        0.02300000       0.03830000       0.01080000
C        0.67600000      -0.51730000      -1.26260000
C        0.84130000      -2.04200000      -1.21680000
C        1.26220000      -2.54220000      -2.59170000
O        0.34490000      -2.10510000      -3.60760000
C       -0.21130000      -0.88550000      -3.41190000
N       -0.10640000      -0.09690000      -2.43020000
H        0.99620000       1.98780000       0.05470000
H       -0.53970000       1.95800000      -0.82280000
H       -0.52630000       1.92390000       0.95240000
H        0.57040000      -0.34930000       0.87980000
H       -0.99650000      -0.36260000       0.07620000
H        1.67220000      -0.05720000      -1.35500000
H        1.58400000      -2.34140000      -0.46970000
H       -0.11240000      -2.50600000      -0.93650000
H        2.26250000      -2.17170000      -2.85140000
H        1.27510000      -3.63300000      -2.65350000
H       -0.82620000      -0.62510000      -4.27230000
