17
Properties=species:S:1:pos:R:3 gdb_111718=T pbc="F F F"
C       -0.42880000       0.94400000      -0.15430000
O        0.61460000       0.00910000       0.07380000
C        1.01330000      -0.65260000      -1.07030000
C        1.45390000      -2.07770000      -0.97460000
C        0.52340000      -2.81790000      -0.02050000
O       -0.66040000      -2.36370000      -0.73060000
C        0.14780000      -1.71910000      -1.71980000
C       -0.23520000      -1.75860000      -3.08560000
C       -0.55740000      -1.77100000      -4.24520000
H       -0.12360000       1.72010000      -0.87090000
H       -1.33040000       0.44480000      -0.52990000
H       -0.64760000       1.41380000       0.80680000
H        1.56630000      -0.05180000      -1.79570000
H        2.39800000      -2.44080000      -1.35700000
H        0.61140000      -3.90670000      -0.08840000
H        0.52700000      -2.49370000       1.02350000
H       -0.84430000      -1.78890000      -5.26750000
