14
Properties=species:S:1:pos:R:3 gdb_55667=T pbc="F F F"
N       -0.03960000       1.39250000      -0.26940000
C        0.02870000       0.07310000       0.10520000
O        1.00380000      -0.43310000       0.62400000
N       -1.13130000      -0.65450000      -0.16890000
C       -1.07610000      -2.09820000      -0.04760000
C       -2.17160000      -2.59860000       0.91030000
O       -2.84200000      -3.57460000       0.73790000
C       -1.11360000      -2.78210000      -1.34500000
N       -1.15900000      -3.28080000      -2.38540000
H        0.70250000       1.96620000       0.09880000
H       -0.93670000       1.84260000      -0.35640000
H       -1.77010000      -0.28770000      -0.85870000
H       -0.11050000      -2.30360000       0.44180000
H       -2.26830000      -1.93940000       1.79930000
