19
Properties=species:S:1:pos:R:3 gdb_38893=T pbc="F F F"
C        0.04190000       1.58530000       0.15970000
C        1.58360000       1.51470000      -0.10770000
C        1.48140000       0.03210000       0.17950000
C        2.20480000      -0.93480000       0.73030000
C        1.49930000      -2.19930000       1.07880000
O        0.86900000      -2.26090000       2.37790000
C        0.03080000      -2.17770000       1.22000000
C       -0.74500000      -0.87000000       1.02370000
C       -0.02440000       0.02780000       0.01190000
H       -0.17580000       1.90000000       1.18350000
H       -0.55740000       2.17950000      -0.53320000
H        1.82530000       1.72850000      -1.15490000
H        2.24450000       2.10940000       0.52790000
H        3.25790000      -0.82740000       0.97510000
H        1.98370000      -3.13380000       0.79440000
H       -0.51540000      -3.09780000       1.01180000
H       -1.77410000      -1.08350000       0.71690000
H       -0.79110000      -0.36710000       1.99550000
H       -0.31000000      -0.23820000      -1.01400000
