22
Properties=species:S:1:pos:R:3 gdb_74903=T pbc="F F F"
C       -0.06120000       1.58680000      -0.04010000
C       -0.00000000       0.08460000       0.00300000
C        0.03850000      -0.66210000      -1.10590000
C        0.12360000      -2.14920000      -1.06870000
N        1.33060000      -2.77960000      -1.65460000
C        1.12620000      -2.81660000      -0.19270000
C        2.07790000      -1.96690000       0.62690000
C        1.39120000      -1.18990000       1.76780000
C        0.02570000      -0.56790000       1.37710000
H        0.78710000       2.03030000       0.49810000
H       -0.04950000       1.96660000      -1.06530000
H       -0.96760000       1.96020000       0.45420000
H        0.01710000      -0.19030000      -2.08640000
H       -0.81560000      -2.68000000      -1.23260000
H        1.07660000      -3.67560000      -2.06370000
H        0.83300000      -3.76920000       0.24610000
H        2.88440000      -2.58790000       1.03460000
H        2.54840000      -1.26230000      -0.06320000
H        1.22770000      -1.84440000       2.63250000
H        2.07510000      -0.40380000       2.10890000
H       -0.26200000       0.16080000       2.14260000
H       -0.73430000      -1.35590000       1.40730000
