16
Properties=species:S:1:pos:R:3 gdb_47302=T pbc="F F F"
N        0.16600000       1.45900000      -0.18020000
C       -0.12640000       0.23350000      -0.16990000
O       -1.36260000      -0.15870000      -0.53750000
C       -1.56720000      -1.32720000      -1.33430000
C       -0.98600000      -2.63940000      -0.78330000
C        0.50230000      -2.77150000      -1.04990000
O        1.00030000      -3.70140000      -1.63450000
C        1.36760000      -1.60990000      -0.55850000
O        0.68340000      -0.75160000       0.34850000
H        1.08780000       1.59000000       0.23340000
H       -2.65350000      -1.41480000      -1.39140000
H       -1.19580000      -1.13960000      -2.35120000
H       -1.17560000      -2.68610000       0.29490000
H       -1.48480000      -3.48450000      -1.26470000
H        2.22870000      -2.01750000      -0.02340000
H        1.74780000      -1.05000000      -1.42420000
