15
Properties=species:S:1:pos:R:3 gdb_21222=T pbc="F F F"
C        0.06380000       1.41560000       0.14060000
N       -0.04810000       0.02480000      -0.26520000
C       -1.23670000      -0.64770000      -0.07730000
N       -1.23060000      -1.95400000       0.11060000
O       -2.60620000      -2.30770000       0.18340000
C       -3.34370000      -1.20230000       0.05980000
N       -4.70360000      -1.37050000       0.18100000
C       -2.55390000      -0.10060000      -0.10910000
H        1.06940000       1.77060000      -0.09710000
H       -0.64190000       2.02970000      -0.42720000
H       -0.12150000       1.58320000       1.21240000
H        0.74910000      -0.54870000      -0.02650000
H       -5.01370000      -2.31230000      -0.01430000
H       -5.25790000      -0.67420000      -0.29390000
H       -2.86110000       0.92220000      -0.23750000
