16
Properties=species:S:1:pos:R:3 gdb_26074=T pbc="F F F"
O        0.61940000       1.57230000      -0.18640000
C        0.18720000       0.22430000       0.00190000
C        0.40110000      -0.58670000      -1.20590000
C        0.59160000      -1.23540000      -2.19980000
C        0.82180000      -0.39980000       1.22320000
C        1.28090000       0.30830000       2.31310000
N        1.75220000      -0.59580000       3.22910000
C        1.60300000      -1.87100000       2.74580000
C        1.02820000      -1.78240000       1.50060000
H        1.57450000       1.53940000      -0.31810000
H       -0.89640000       0.31980000       0.15480000
H        0.75280000      -1.80480000      -3.08170000
H        1.29980000       1.36890000       2.49990000
H        2.16090000      -0.35710000       4.11540000
H        1.92430000      -2.72510000       3.31980000
H        0.78840000      -2.60560000       0.84630000
