15
Properties=species:S:1:pos:R:3 gdb_57237=T pbc="F F F"
C        0.07560000       1.52060000       0.08690000
C       -0.01110000      -0.01510000       0.00780000
O        0.68320000      -0.49760000       1.15530000
C       -1.41630000      -0.46130000       0.01280000
C       -2.55660000      -0.83790000       0.04130000
C        0.62570000      -0.50310000      -1.23130000
C        1.17170000      -0.92820000      -2.22120000
C        1.79800000      -1.40880000      -3.42760000
O        2.57880000      -2.33090000      -3.47050000
H        1.12620000       1.81860000       0.08650000
H       -0.43590000       1.97710000      -0.76180000
H       -0.39340000       1.84900000       1.01640000
H        0.64030000      -1.46110000       1.14570000
H       -3.56560000      -1.17000000       0.06540000
H        1.50190000      -0.85500000      -4.34130000
