21
Properties=species:S:1:pos:R:3 gdb_114798=T pbc="F F F"
O       -0.14670000       0.37530000       2.02870000
C       -0.23060000       0.46430000       0.61210000
C       -1.31420000      -0.42610000       0.02830000
C       -1.46040000      -0.48400000      -1.51820000
C       -1.59930000      -2.03320000      -1.45330000
C       -0.56860000      -2.85710000      -2.24850000
C        0.59290000      -2.96050000      -1.28510000
C        0.30030000      -2.49680000      -0.06850000
C       -1.11280000      -1.98300000       0.03580000
H        0.06580000      -0.53700000       2.24950000
H       -0.45340000       1.51510000       0.39380000
H        0.73740000       0.23270000       0.13970000
H       -2.26700000      -0.17660000       0.50630000
H       -2.29870000       0.06880000      -1.94830000
H       -0.54560000      -0.17610000      -2.03580000
H       -2.62670000      -2.37260000      -1.59340000
H       -0.94280000      -3.85350000      -2.52190000
H       -0.29020000      -2.36570000      -3.19030000
H        1.54720000      -3.39120000      -1.57050000
H        0.99210000      -2.50460000       0.76890000
H       -1.69300000      -2.52040000       0.79400000
