16
Properties=species:S:1:pos:R:3 gdb_52978=T pbc="F F F"
C        0.01750000       1.47230000      -0.09120000
C       -0.03010000       0.02080000      -0.02110000
C       -0.07560000      -1.18310000       0.02070000
C       -0.08750000      -2.59690000       0.12420000
O       -0.33970000      -3.42270000      -1.02630000
C       -1.16230000      -3.60880000       0.11560000
C       -0.38940000      -4.46210000       1.18300000
N        0.93620000      -4.79920000       0.61020000
C        0.69780000      -3.46250000       1.19190000
H        0.92000000       1.86250000       0.39180000
H        0.02450000       1.81360000      -1.13220000
H       -0.84890000       1.92640000       0.40250000
H       -2.23480000      -3.50290000       0.00490000
H       -0.83380000      -5.02030000       1.99540000
H        1.43100000      -5.33990000       1.32090000
H        1.28040000      -3.05930000       2.00890000
