23
Properties=species:S:1:pos:R:3 gdb_121234=T pbc="F F F"
C       -0.11770000       1.55110000      -0.25280000
C        0.12810000       0.04320000      -0.15890000
C        0.44390000      -0.42830000       1.26700000
C        0.69520000      -1.93070000       1.34370000
C        2.02860000      -2.48870000       0.79550000
O        2.29290000      -3.20000000       2.02510000
C        1.13890000      -2.59810000       2.67410000
C        1.61160000      -1.74400000       3.84150000
O        2.35350000      -2.54520000       4.74160000
H        0.76060000       2.11730000       0.07640000
H       -0.34390000       1.85510000      -1.27940000
H       -0.96070000       1.85460000       0.37790000
H       -0.75250000      -0.49760000      -0.53000000
H        0.95610000      -0.23450000      -0.82480000
H        1.31720000       0.12070000       1.64100000
H       -0.39260000      -0.16220000       1.92740000
H       -0.16190000      -2.46060000       0.91690000
H        1.96960000      -3.16920000      -0.06100000
H        2.79350000      -1.72660000       0.59050000
H        0.46770000      -3.37870000       3.05370000
H        2.21330000      -0.89670000       3.47750000
H        0.75850000      -1.33730000       4.39590000
H        3.00750000      -3.00370000       4.19850000
