18
Properties=species:S:1:pos:R:3 gdb_7254=T pbc="F F F"
C        0.25970000       1.55200000       0.24330000
C       -0.04240000       0.08310000      -0.05520000
C        0.28010000      -0.82990000       1.14890000
C       -1.49790000      -0.11950000      -0.46180000
O       -2.35410000       0.71910000      -0.30380000
C       -1.86850000      -1.48980000      -1.05180000
C       -2.78720000      -2.22960000      -0.09190000
O       -2.54940000      -3.31650000       0.36470000
H        1.31140000       1.67580000       0.51780000
H        0.05150000       2.18490000      -0.62340000
H       -0.35950000       1.91310000       1.06870000
H        0.57100000      -0.25700000      -0.90190000
H       -0.29240000      -0.51940000       2.02920000
H        0.05140000      -1.88120000       0.95160000
H        1.34300000      -0.75740000       1.39650000
H       -2.43670000      -1.29000000      -1.96810000
H       -1.00310000      -2.11400000      -1.27860000
H       -3.70650000      -1.66660000       0.17350000
