18
Properties=species:S:1:pos:R:3 gdb_39840=T pbc="F F F"
C       -0.11690000       1.46890000      -0.00040000
C        1.24780000       0.83280000      -0.00230000
C        0.00890000      -0.03270000       0.00680000
C       -0.32380000      -0.87120000       1.22200000
N       -1.75090000      -1.22410000       1.37320000
C       -0.82160000      -2.19710000       0.75990000
C       -0.82630000      -2.17910000      -0.75970000
O       -1.70820000      -1.22150000      -1.34370000
C       -0.32690000      -0.86580000      -1.20620000
H       -0.46340000       1.94510000       0.91010000
H       -0.46690000       1.94230000      -0.91120000
H        1.83450000       0.87070000      -0.91460000
H        1.83960000       0.87590000       0.90650000
H        0.28350000      -0.75900000       2.11590000
H       -1.91590000      -1.50100000       2.33930000
H       -0.58930000      -3.12290000       1.27460000
H       -0.68480000      -3.10240000      -1.31490000
H        0.20390000      -0.70010000      -2.14220000
