19
Properties=species:S:1:pos:R:3 gdb_108598=T pbc="F F F"
O        0.71370000       0.05040000      -0.42000000
C       -0.38020000       0.41840000       0.40360000
C       -1.62530000      -0.38200000       0.09170000
O       -2.77010000       0.02530000       0.81750000
C       -3.26910000      -1.11410000       1.54480000
C       -2.91350000      -2.35120000       0.69670000
C       -1.70200000      -1.87530000      -0.10130000
C       -1.99200000      -0.92710000      -1.26420000
O       -3.28680000      -0.74290000      -1.73590000
H        0.56090000       0.42090000      -1.29470000
H       -0.06710000       0.22500000       1.43590000
H       -0.60880000       1.49190000       0.32820000
H       -2.78380000      -1.15750000       2.52980000
H       -4.34190000      -0.96400000       1.69240000
H       -2.67580000      -3.21560000       1.32080000
H       -3.73760000      -2.62350000       0.03030000
H       -0.79980000      -2.47330000      -0.14540000
H       -1.24960000      -0.90250000      -2.05710000
H       -3.72220000      -0.16690000      -1.09080000
