18
Properties=species:S:1:pos:R:3 gdb_74803=T pbc="F F F"
C        0.04190000       1.51260000       0.01260000
C       -0.03260000       0.02380000      -0.06030000
C       -0.05070000      -0.78250000      -1.13420000
C       -0.04010000      -2.22650000      -0.74200000
N        1.20510000      -2.57820000       0.00690000
C       -0.06690000      -2.27600000       0.73430000
C       -0.74260000      -3.30660000       1.59260000
C       -0.07500000      -0.81540000       1.17850000
O       -0.14160000      -0.41860000       2.31880000
H        0.97240000       1.82870000       0.49780000
H       -0.00420000       1.96920000      -0.97920000
H       -0.77470000       1.90980000       0.62480000
H       -0.01400000      -0.45300000      -2.16680000
H       -0.51430000      -2.98250000      -1.35790000
H        1.31260000      -3.59470000       0.00390000
H       -0.69900000      -4.29770000       1.12960000
H       -0.26200000      -3.35700000       2.57450000
H       -1.79480000      -3.05200000       1.75520000
