16
Properties=species:S:1:pos:R:3 gdb_26004=T pbc="F F F"
C       -0.00010000       1.54690000      -0.14930000
C        0.07050000       0.04880000       0.09450000
O        0.22690000      -0.42550000       1.20610000
N       -0.05420000      -0.72720000      -1.02610000
C       -0.01980000      -2.12090000      -1.04680000
C        0.13710000      -3.01700000      -0.01870000
N        0.08930000      -4.25140000      -0.64100000
C       -0.08830000      -4.04230000      -1.97000000
N       -0.15900000      -2.75900000      -2.25320000
H        0.92560000       2.00530000       0.20920000
H       -0.14800000       1.81770000      -1.19770000
H       -0.81930000       1.96130000       0.44440000
H       -0.18230000      -0.29830000      -1.92880000
H        0.27020000      -2.88370000       1.03720000
H        0.17240000      -5.14240000      -0.18180000
H       -0.15920000      -4.84910000      -2.68310000
