23
Properties=species:S:1:pos:R:3 gdb_104662=T pbc="F F F"
C        0.24510000       0.81220000       0.96740000
C        0.37710000      -0.58450000       0.34100000
C        0.57460000      -0.57970000      -1.17040000
C        1.78130000       0.20550000      -1.67540000
O        1.52770000       1.58560000      -1.91150000
C        0.18770000      -1.82270000      -1.97600000
C       -0.37390000      -3.08030000      -1.34650000
C       -0.63440000      -0.55400000      -2.06740000
O       -1.88150000      -0.48700000      -1.43040000
H        1.16600000       1.39980000       0.86740000
H       -0.57910000       1.36850000       0.50960000
H        0.04050000       0.73740000       2.04010000
H        1.22320000      -1.10950000       0.80470000
H       -0.51920000      -1.15420000       0.59150000
H        2.62160000       0.07190000      -0.97450000
H        2.10920000      -0.18560000      -2.64370000
H        1.18360000       1.96820000      -1.09950000
H        0.82850000      -2.01470000      -2.83400000
H       -1.20120000      -2.86090000      -0.66820000
H       -0.75530000      -3.75370000      -2.12240000
H        0.38990000      -3.62900000      -0.78510000
H       -0.56200000       0.04680000      -2.97290000
H       -2.52280000      -0.94740000      -1.98180000
