17
Properties=species:S:1:pos:R:3 gdb_35562=T pbc="F F F"
N        0.17550000      -1.11840000      -0.14610000
C        0.07610000       0.03110000      -0.08690000
C       -0.04690000       1.48800000      -0.03850000
N       -0.27180000       2.07970000       1.32950000
C        0.69030000       3.19760000       1.00800000
C        1.93680000       3.49550000       1.86080000
C        3.11100000       3.29250000       0.84060000
C        2.54450000       2.27140000      -0.14670000
C        1.22220000       2.31970000      -0.08220000
H       -0.79890000       1.80120000      -0.77670000
H       -1.23220000       2.37980000       1.47330000
H        0.17190000       4.10750000       0.67330000
H        1.93930000       4.48600000       2.32380000
H        2.00910000       2.74270000       2.65150000
H        3.38590000       4.23560000       0.34960000
H        4.01920000       2.91960000       1.32440000
H        3.15600000       1.57640000      -0.70860000
