15
Properties=species:S:1:pos:R:3 gdb_131879=T pbc="F F F"
O       -0.05740000       1.44310000      -0.02560000
C       -0.00990000       0.03220000      -0.01470000
C       -1.39360000      -0.58700000       0.05360000
O       -2.07160000      -0.18130000      -1.15520000
C       -3.33420000      -0.55760000      -1.27830000
N       -3.98130000      -1.29370000      -0.40440000
O       -5.25580000      -1.40870000      -0.99390000
C       -5.19850000      -0.72690000      -2.13590000
N       -4.05550000      -0.17460000      -2.38480000
H       -0.58870000       1.69960000      -0.78760000
H        0.52080000      -0.36580000      -0.89360000
H        0.55180000      -0.26270000       0.87740000
H       -1.35290000      -1.68090000       0.10020000
H       -1.95380000      -0.21410000       0.91710000
H       -6.09520000      -0.69840000      -2.73790000
