13
Properties=species:S:1:pos:R:3 gdb_5217=T pbc="F F F"
N       -0.09930000       1.35290000      -0.03010000
C       -0.06870000       0.00490000      -0.00520000
N       -1.14950000      -0.69320000      -0.00780000
C       -1.00570000      -2.05320000      -0.00850000
N        0.06360000      -2.80480000      -0.02310000
C       -0.42600000      -4.10060000      -0.01330000
C       -1.77840000      -4.06970000       0.00610000
O       -2.16650000      -2.75720000       0.00920000
H        0.74180000       1.89140000       0.06340000
H       -0.98810000       1.82470000       0.01410000
H        0.93030000      -0.43920000       0.00340000
H        0.23000000      -4.95710000      -0.02180000
H       -2.56310000      -4.80550000       0.01800000
