17
Properties=species:S:1:pos:R:3 gdb_83304=T pbc="F F F"
O        0.11050000       1.39160000       0.20260000
C       -0.00590000       0.00190000       0.04170000
C       -1.44610000      -0.52810000      -0.13600000
C       -2.04610000       0.14790000      -1.37320000
O       -1.29870000      -0.41870000      -2.47740000
C       -0.39240000      -1.39450000      -1.91720000
C       -1.15610000      -1.93900000      -0.70780000
C        0.65830000      -0.48970000      -1.26330000
O        1.70470000      -0.07720000      -1.69200000
H        0.92700000       1.64890000      -0.24780000
H        0.46340000      -0.53310000       0.88600000
H       -2.06530000      -0.47670000       0.75890000
H       -3.10950000      -0.08460000      -1.50200000
H       -1.90770000       1.23190000      -1.36130000
H       -0.05410000      -2.06540000      -2.70380000
H       -0.54580000      -2.56350000      -0.04920000
H       -2.05800000      -2.48360000      -0.99530000
