15
Properties=species:S:1:pos:R:3 gdb_123644=T pbc="F F F"
C       -0.03560000       1.46950000       0.01980000
C        1.43540000       1.89020000      -0.03550000
N        2.20550000       1.49150000       1.15280000
C        2.29350000       0.66280000      -0.08020000
C        1.35040000      -0.47410000      -0.04560000
C        1.17080000      -1.83650000      -0.03360000
N       -0.16950000      -2.08810000       0.05540000
N       -0.82890000      -0.95560000       0.10390000
N        0.08820000       0.01360000       0.03330000
H       -0.53940000       1.82360000       0.92230000
H       -0.59360000       1.79980000      -0.86130000
H        1.69910000       2.79580000      -0.56940000
H        3.03700000       2.07490000       1.22330000
H        3.22200000       0.61610000      -0.63500000
H        1.89080000      -2.63650000      -0.07860000
