14
Properties=species:S:1:pos:R:3 gdb_45679=T pbc="F F F"
O       -0.14780000      -0.02020000       0.13920000
C       -0.05100000       1.16740000       0.08650000
C       -1.20310000       2.22230000       0.03590000
N       -0.66490000       3.44440000       0.66040000
C        0.60090000       3.30850000       0.62310000
N        1.63340000       3.95170000       1.28710000
C        2.62730000       2.96550000       1.43010000
N        2.46460000       1.87030000       0.78400000
C        1.21390000       2.06660000       0.04600000
H       -1.48300000       2.37930000      -1.01570000
H       -2.09490000       1.87120000       0.56250000
H        1.46830000       4.66280000       1.98370000
H        3.48550000       3.17530000       2.05950000
H        1.44320000       2.16770000      -1.02750000
