22
Properties=species:S:1:pos:R:3 gdb_7549=T pbc="F F F"
C       -0.21270000       1.51030000       0.08890000
C       -0.09000000       0.00340000       0.24320000
O       -1.25130000      -0.59150000      -0.31580000
C       -1.36870000      -1.97630000      -0.13010000
C       -0.42210000      -2.81140000      -0.96650000
C       -1.78380000      -2.45360000       1.24540000
C       -2.77770000      -2.45760000       0.09620000
C       -3.95000000      -1.50280000       0.09360000
H        0.67200000       2.00900000       0.49640000
H       -0.30820000       1.78100000      -0.96660000
H       -1.09580000       1.88140000       0.61710000
H        0.81580000      -0.35680000      -0.26760000
H        0.00320000      -0.27410000       1.30440000
H        0.62370000      -2.65400000      -0.68100000
H       -0.63830000      -3.87660000      -0.84450000
H       -0.52690000      -2.55870000      -2.02700000
H       -1.39590000      -3.39620000       1.61750000
H       -1.92550000      -1.69270000       2.00630000
H       -2.99300000      -3.43560000      -0.32810000
H       -3.64860000      -0.51830000       0.45710000
H       -4.35140000      -1.37300000      -0.91740000
H       -4.75960000      -1.87620000       0.73030000
