15
Properties=species:S:1:pos:R:3 gdb_125822=T pbc="F F F"
C       -0.10780000       1.46390000       0.16820000
C       -0.01860000      -0.02300000       0.08410000
N       -0.14490000      -0.65960000      -1.05540000
O       -0.00800000      -2.01580000      -0.76710000
C        0.21350000      -2.16830000       0.54850000
C        0.20940000      -0.94820000       1.14700000
O        0.41380000      -0.58440000       2.44440000
C       -0.16370000      -1.34650000       3.41760000
N        0.17180000      -1.16730000       4.61510000
H        0.82410000       1.88670000       0.55630000
H       -0.30330000       1.88180000      -0.82060000
H       -0.90950000       1.76710000       0.84890000
H        0.36280000      -3.17550000       0.90220000
H       -0.90280000      -2.05090000       3.01720000
H       -0.36490000      -1.77900000       5.22650000
