19
Properties=species:S:1:pos:R:3 gdb_113882=T pbc="F F F"
C       -0.03150000       1.39040000       0.51180000
C        0.09540000      -0.06810000       0.11970000
O        1.15430000      -0.64980000       0.12740000
C       -1.20160000      -0.75940000      -0.31520000
C       -1.11190000      -2.26550000      -0.23900000
O       -1.64270000      -2.89010000       0.93730000
C       -2.26200000      -3.17700000      -0.32940000
C       -3.70270000      -2.74670000      -0.45430000
O       -4.54590000      -3.57380000       0.32920000
H        0.95750000       1.83090000       0.64200000
H       -0.59840000       1.94970000      -0.24050000
H       -0.59020000       1.46780000       1.45220000
H       -2.04120000      -0.38420000       0.27640000
H       -1.38650000      -0.44090000      -1.35220000
H       -0.13940000      -2.65330000      -0.53820000
H       -2.07350000      -4.19220000      -0.68350000
H       -3.81470000      -1.68790000      -0.18130000
H       -4.03710000      -2.86210000      -1.49140000
H       -4.20530000      -3.54060000       1.23050000
