15
Properties=species:S:1:pos:R:3 gdb_19458=T pbc="F F F"
N       -0.07980000      -1.16050000      -0.08590000
C       -0.04960000      -0.00510000      -0.03760000
C       -0.01330000       1.44190000       0.00800000
C       -0.02800000       2.07950000       1.45190000
C        1.48990000       1.72500000       1.52980000
C        1.41170000       2.10840000       0.03500000
O        1.09030000       3.49740000       0.04590000
C        0.05910000       3.55850000       1.06410000
H       -0.70570000       1.86430000      -0.72440000
H       -0.75400000       1.78070000       2.20510000
H        2.12890000       2.34290000       2.16340000
H        1.66990000       0.66370000       1.69970000
H        2.17900000       1.89890000      -0.70660000
H       -0.86370000       3.96200000       0.63370000
H        0.38200000       4.20010000       1.89110000
