20
Properties=species:S:1:pos:R:3 gdb_94824=T pbc="F F F"
C        0.06110000       1.53370000      -0.06600000
C        0.00150000       0.01000000       0.00460000
O        0.59940000      -0.48030000      -1.19050000
C        0.81200000      -1.87790000      -1.16200000
C        1.80640000      -2.26410000      -0.08250000
C        2.36770000      -3.64140000      -0.10800000
N        3.23490000      -2.49520000      -0.40970000
C        1.54400000      -1.54900000       1.18980000
C        0.68660000      -0.53080000       1.23680000
H        1.10130000       1.87110000      -0.07210000
H       -0.42610000       1.88490000      -0.97930000
H       -0.44750000       1.97730000       0.79500000
H       -1.06190000      -0.29900000       0.02410000
H       -0.14150000      -2.40580000      -0.98750000
H        1.17700000      -2.16210000      -2.15520000
H        2.59050000      -4.15520000       0.82380000
H        2.05660000      -4.29780000      -0.91880000
H        3.37210000      -2.41390000      -1.41510000
H        2.07140000      -1.88890000       2.07640000
H        0.46000000      -0.03260000       2.17570000
