18
Properties=species:S:1:pos:R:3 gdb_56544=T pbc="F F F"
C        0.01800000       1.60360000       0.08400000
C        0.00480000       0.06340000       0.07390000
C        0.76300000      -0.48620000       1.19470000
C        1.38810000      -0.94030000       2.11530000
C       -1.45430000      -0.49790000       0.08950000
O       -2.17670000      -0.01310000       1.18290000
C       -2.20770000      -0.11630000      -1.19720000
N       -1.77060000      -0.67800000      -2.35130000
O       -3.13790000       0.67180000      -1.14680000
H        1.04490000       1.97540000       0.08920000
H       -0.49290000       2.00160000      -0.79770000
H       -0.49170000       1.97060000       0.97670000
H        0.47770000      -0.28490000      -0.85530000
H        1.93660000      -1.33840000       2.93260000
H       -1.39000000      -1.59480000       0.14750000
H       -2.86840000       0.54870000       0.79170000
H       -1.09400000      -1.42160000      -2.35470000
H       -2.28010000      -0.48890000      -3.19960000
