21
Properties=species:S:1:pos:R:3 gdb_103737=T pbc="F F F"
C        0.12760000       1.51600000      -0.13120000
C        0.01000000       0.02100000       0.19280000
C       -1.41680000      -0.48840000       0.08090000
O       -2.31080000       0.16410000       0.95270000
C       -1.97130000      -0.96320000      -1.22540000
C       -1.70110000      -1.97710000      -0.09770000
C       -0.58630000      -2.99400000      -0.23560000
C       -2.92990000      -2.50540000       0.56590000
O       -3.02880000      -3.63710000       0.97670000
H        1.16610000       1.84930000      -0.05300000
H       -0.21800000       1.73220000      -1.14830000
H       -0.46080000       2.12080000       0.56640000
H        0.65950000      -0.54800000      -0.47780000
H        0.36490000      -0.16240000       1.21390000
H       -2.50070000       1.03370000       0.58470000
H       -3.00890000      -0.73210000      -1.44540000
H       -1.32030000      -1.01790000      -2.09170000
H        0.21160000      -2.64390000      -0.89330000
H       -0.15020000      -3.23510000       0.73850000
H       -0.98770000      -3.92370000      -0.64730000
H       -3.76820000      -1.78660000       0.64720000
