15
Properties=species:S:1:pos:R:3 gdb_126995=T pbc="F F F"
C       -0.05380000       1.49860000       0.03190000
C       -0.04560000      -0.01610000       0.03090000
O        0.68340000      -0.44020000      -1.14370000
C        0.81220000      -1.74170000      -1.33990000
C        1.44300000      -2.42470000      -2.35030000
O        2.10230000      -1.92170000      -3.41610000
N        1.28880000      -3.74230000      -2.09070000
N        0.62800000      -3.93910000      -1.02450000
O        0.29450000      -2.63080000      -0.49820000
H        0.96530000       1.89220000       0.06840000
H       -0.54370000       1.88470000      -0.86570000
H       -0.59820000       1.86140000       0.90840000
H        0.44880000      -0.42250000       0.91980000
H       -1.05870000      -0.43000000      -0.01320000
H        2.42380000      -2.66960000      -3.93320000
