18
Properties=species:S:1:pos:R:3 gdb_110044=T pbc="F F F"
C        0.08550000       1.00590000      -0.44150000
O        0.06180000      -0.35300000      -0.02750000
C        0.62770000      -0.58390000       1.25540000
C        0.28170000      -2.04080000       1.61020000
O       -0.99660000      -2.44450000       1.20920000
C        1.43980000      -2.79390000       0.92140000
O        2.56690000      -1.90280000       1.00170000
C        2.14500000      -0.61800000       1.18000000
N        2.89920000       0.39330000       1.25010000
H        1.10920000       1.39290000      -0.47760000
H       -0.35940000       1.03690000      -1.43830000
H       -0.50670000       1.63290000       0.24020000
H        0.27290000       0.15890000       1.97790000
H        0.35370000      -2.17440000       2.69480000
H       -1.18790000      -1.93870000       0.40660000
H        1.71340000      -3.73000000       1.41090000
H        1.19410000      -2.98880000      -0.12840000
H        3.87750000       0.12060000       1.12910000
