25
Properties=species:S:1:pos:R:3 gdb_122683=T pbc="F F F"
O       -0.09000000       1.50340000       0.12330000
C        0.02940000       0.08810000       0.10300000
C       -1.36950000      -0.50310000      -0.00680000
C       -1.36770000      -2.03520000      -0.04360000
C       -2.76390000      -2.66060000      -0.10060000
C       -3.57130000      -2.35050000      -1.37970000
C       -4.64480000      -3.46790000      -1.48040000
C       -4.20600000      -4.57400000      -0.47780000
C       -2.77140000      -4.19880000      -0.06720000
H        0.79270000       1.87830000       0.19120000
H        0.64270000      -0.24720000      -0.75000000
H        0.51930000      -0.28320000       1.01870000
H       -1.96330000      -0.14720000       0.84460000
H       -1.84350000      -0.09800000      -0.90820000
H       -0.78850000      -2.38160000      -0.91200000
H       -0.84230000      -2.41620000       0.84330000
H       -3.33920000      -2.30200000       0.76670000
H       -4.00930000      -1.34880000      -1.37380000
H       -2.89680000      -2.39500000      -2.24470000
H       -5.63960000      -3.08840000      -1.22960000
H       -4.71080000      -3.85460000      -2.50140000
H       -4.85620000      -4.56100000       0.40390000
H       -4.27400000      -5.57910000      -0.90320000
H       -2.05150000      -4.57910000      -0.80510000
H       -2.48210000      -4.60810000       0.90600000
