15
Properties=species:S:1:pos:R:3 gdb_46022=T pbc="F F F"
O       -0.04310000      -0.06280000      -0.06910000
C       -0.02240000       1.15130000      -0.02150000
N       -1.13290000       1.94220000      -0.11320000
C       -1.21660000       3.38150000       0.11500000
C        0.15640000       4.01810000       0.03300000
C        1.25120000       3.23520000       0.04250000
N        1.17250000       1.85970000       0.10260000
C        0.23210000       5.42820000      -0.01500000
C        0.23520000       6.63380000      -0.05340000
H       -1.99060000       1.41550000      -0.15820000
H       -1.87550000       3.82700000      -0.64060000
H       -1.67120000       3.60150000       1.09460000
H        2.25050000       3.65080000       0.00900000
H        2.00150000       1.29030000       0.07520000
H        0.25680000       7.69460000      -0.08690000
