21
Properties=species:S:1:pos:R:3 gdb_63369=T pbc="F F F"
C       -0.30840000       1.50410000       0.13470000
C       -0.06430000      -0.00460000      -0.01400000
C       -1.35350000      -0.80620000       0.16310000
C        0.83150000      -0.37440000      -1.25130000
C        2.06370000      -0.62870000      -0.33720000
C        2.82820000      -1.93380000      -0.46990000
O        2.92510000       0.50820000      -0.40800000
C        1.10500000      -0.47510000       0.87550000
O        1.23680000      -0.66630000       2.05200000
H        0.62070000       2.06680000       0.01050000
H       -1.02280000       1.84790000      -0.62160000
H       -0.72010000       1.73180000       1.12320000
H       -2.09870000      -0.50590000      -0.58190000
H       -1.18010000      -1.88160000       0.05200000
H       -1.77830000      -0.63650000       1.15740000
H        0.49660000      -1.27700000      -1.76780000
H        0.98710000       0.42500000      -1.97700000
H        3.40050000      -1.94160000      -1.40280000
H        3.52390000      -2.05500000       0.36800000
H        2.15170000      -2.79410000      -0.46560000
H        3.51000000       0.47500000       0.35870000
