21
Properties=species:S:1:pos:R:3 gdb_74962=T pbc="F F F"
C       -0.02940000       1.50860000       0.01440000
C       -0.09560000       0.01830000      -0.03140000
C       -0.06400000      -0.80100000      -1.09110000
C        0.03290000      -2.22530000      -0.57500000
C        1.43090000      -2.32270000       0.10860000
O        1.32620000      -1.43960000       1.22880000
C       -0.03770000      -0.89550000       1.20250000
C       -0.34220000      -0.31020000       2.56010000
C       -0.83270000      -2.11440000       0.70430000
H        0.87790000       1.84470000       0.53240000
H       -0.02010000       1.93660000      -0.99210000
H       -0.87830000       1.94010000       0.55910000
H        0.02080000      -0.51420000      -2.13280000
H       -0.18730000      -3.02820000      -1.27810000
H        1.63980000      -3.34120000       0.46170000
H        2.24460000      -2.00330000      -0.55300000
H        0.35700000       0.49530000       2.80360000
H       -1.35780000       0.09650000       2.58570000
H       -0.25390000      -1.07880000       3.33280000
H       -1.87970000      -1.89420000       0.48950000
H       -0.75120000      -2.97030000       1.38180000
