21
Properties=species:S:1:pos:R:3 gdb_57496=T pbc="F F F"
C       -0.10680000       1.55020000       0.08400000
C       -0.02450000       0.01530000       0.05000000
C        0.65990000      -0.50470000       1.32480000
C       -1.43940000      -0.57780000      -0.05800000
C        0.77770000      -0.44410000      -1.20640000
C        2.15060000       0.03210000      -1.26650000
C        3.29440000       0.42710000      -1.31870000
C        4.57960000       0.87050000      -1.37750000
C        5.72040000       1.26390000      -1.43020000
H        0.88920000       1.99930000       0.13940000
H       -0.60250000       1.94000000      -0.81230000
H       -0.67940000       1.88670000       0.95460000
H        0.09950000      -0.20070000       2.21510000
H        0.71790000      -1.59910000       1.32470000
H        1.67780000      -0.11420000       1.41550000
H       -1.95110000      -0.22780000      -0.96140000
H       -1.41200000      -1.67280000      -0.08880000
H       -2.04760000      -0.28430000       0.80380000
H        0.77950000      -1.54210000      -1.24240000
H        0.24510000      -0.11000000      -2.10730000
H        6.72300000       1.60930000      -1.47690000
