16
Properties=species:S:1:pos:R:3 gdb_87077=T pbc="F F F"
C       -0.03890000       1.54010000       0.05770000
C        0.04380000       0.03150000       0.01370000
C        1.34780000      -0.67690000      -0.22930000
C        0.70780000      -0.72440000       1.15680000
O        1.25670000       0.07310000       2.16720000
C        0.12570000      -1.95690000       1.60330000
C       -0.34030000      -3.00020000       2.00320000
C       -0.87100000      -4.17610000       2.44470000
N       -1.32160000      -5.17980000       2.81970000
H        0.84030000       1.96930000       0.54110000
H       -0.10920000       1.94250000      -0.95820000
H       -0.92260000       1.86810000       0.61350000
H       -0.83440000      -0.46470000      -0.38810000
H        1.36210000      -1.58340000      -0.82280000
H        2.24340000      -0.06670000      -0.28580000
H        2.03220000      -0.37860000       2.51920000
