22
Properties=species:S:1:pos:R:3 gdb_78779=T pbc="F F F"
C       -0.16300000       1.44590000      -0.03500000
C        0.03340000      -0.06540000       0.04500000
C        1.23000000      -0.55100000      -0.78290000
C        2.15020000      -0.40780000       0.36830000
C        0.86340000      -0.52800000       1.27430000
C        1.03690000      -2.05970000       1.08020000
C        1.95270000      -2.66960000       2.13930000
C       -0.17270000      -2.95700000       0.84370000
N        1.86390000      -1.76760000      -0.15560000
H        0.77680000       1.97930000       0.14460000
H       -0.53290000       1.74420000      -1.02210000
H       -0.89290000       1.78440000       0.70810000
H       -0.92770000      -0.56750000      -0.10730000
H        1.42560000      -0.40430000      -1.83790000
H        3.14090000       0.01050000       0.48440000
H        0.69180000      -0.08720000       2.25680000
H        1.40510000      -2.82230000       3.07550000
H        2.33310000      -3.63920000       1.80300000
H        2.81060000      -2.02390000       2.34810000
H       -0.77010000      -2.63940000      -0.01260000
H        0.15850000      -3.98270000       0.65060000
H       -0.82070000      -2.97470000       1.72740000
