17
Properties=species:S:1:pos:R:3 gdb_56661=T pbc="F F F"
N       -0.06920000       1.43820000       0.04880000
C        0.04740000      -0.01870000      -0.02230000
C        0.76790000      -0.49420000      -1.22960000
N        1.33450000      -0.85900000      -2.16980000
C        0.74960000      -0.53280000       1.23570000
O        1.88430000       0.20340000       1.58620000
C       -0.06970000      -1.17480000       2.33340000
C        0.82650000      -2.01630000       1.46250000
O        0.18390000      -2.87570000       0.57060000
H        0.85410000       1.84640000      -0.06650000
H       -0.63700000       1.78220000      -0.71930000
H       -0.95560000      -0.45040000      -0.06250000
H        1.57920000       0.99740000       2.04180000
H        0.24620000      -1.00060000       3.35560000
H       -1.13920000      -1.27410000       2.18410000
H        1.75120000      -2.38190000       1.90670000
H        0.73950000      -2.96750000      -0.21310000
