19
Properties=species:S:1:pos:R:3 gdb_109098=T pbc="F F F"
O        0.14290000       1.39650000      -0.12950000
C        0.00870000      -0.00800000      -0.07170000
C       -1.43670000      -0.40700000       0.03260000
C       -2.43920000       0.47930000      -0.04050000
C       -3.86360000       0.18710000       0.06800000
C       -4.50280000      -0.98970000      -0.01890000
C       -3.95500000      -2.34760000      -0.35140000
O       -2.60350000      -2.41330000      -0.73930000
C       -1.68480000      -1.88580000       0.20880000
H        1.07110000       1.60400000      -0.26650000
H        0.44050000      -0.49100000      -0.96780000
H        0.55930000      -0.42660000       0.79170000
H       -2.17440000       1.52520000      -0.15510000
H       -4.48490000       1.05920000       0.26310000
H       -5.58070000      -0.99480000       0.13880000
H       -4.15710000      -3.03290000       0.49400000
H       -4.51260000      -2.75410000      -1.20630000
H       -0.75180000      -2.44550000       0.07110000
H       -2.03710000      -2.08940000       1.23290000
