18
Properties=species:S:1:pos:R:3 gdb_47770=T pbc="F F F"
O        0.03040000      -0.03460000      -0.09980000
C       -0.00800000       1.16690000      -0.00960000
C       -1.29970000       1.97890000       0.02980000
N       -1.33740000       3.00970000      -1.01730000
C       -0.16010000       3.88080000      -0.99150000
C        1.16900000       3.12020000      -1.10510000
C        1.27980000       2.02770000      -0.00400000
C        1.47190000       2.60780000       1.32160000
C        1.61290000       3.08580000       2.41630000
H       -2.14850000       1.30020000      -0.08050000
H       -1.37770000       2.47560000       1.00540000
H       -1.40260000       2.55630000      -1.92460000
H       -0.25020000       4.60740000      -1.80540000
H       -0.17980000       4.44570000      -0.05140000
H        1.22390000       2.62580000      -2.08310000
H        2.02370000       3.80190000      -1.03430000
H        2.10970000       1.34850000      -0.22570000
H        1.75060000       3.49990000       3.38450000
