22
Properties=species:S:1:pos:R:3 gdb_93035=T pbc="F F F"
C       -0.28490000       1.47890000       0.06250000
C        0.06650000      -0.01150000      -0.03110000
C        0.84140000      -0.33820000      -1.34150000
C        2.32880000      -0.05730000      -1.28980000
C        3.17840000      -0.79230000      -0.56990000
C        2.71310000      -1.94640000       0.25110000
N        2.88150000      -1.85640000       1.71910000
C        1.52510000      -1.79380000       1.13520000
C        0.83200000      -0.44920000       1.23690000
H        0.62190000       2.09460000       0.05040000
H       -0.91650000       1.79370000      -0.77490000
H       -0.82250000       1.70220000       0.99050000
H       -0.87490000      -0.57510000      -0.08240000
H        0.69350000      -1.39900000      -1.57130000
H        0.38330000       0.21730000      -2.16660000
H        2.70850000       0.78150000      -1.86830000
H        4.24260000      -0.56790000      -0.56200000
H        2.87790000      -2.93070000      -0.18970000
H        3.05730000      -2.78480000       2.09560000
H        0.89160000      -2.67160000       1.25480000
H        1.60490000       0.29160000       1.46220000
H        0.14560000      -0.44680000       2.09270000
