21
Properties=species:S:1:pos:R:3 gdb_115636=T pbc="F F F"
O        0.15100000       1.37440000      -0.65490000
C        0.15140000      -0.01960000      -0.38030000
C       -1.19790000      -0.51820000       0.12300000
C       -2.34300000      -0.44770000      -0.93320000
C       -2.29440000      -1.99810000      -1.08610000
C       -1.36770000      -2.04690000       0.13450000
C       -0.36080000      -3.10450000       0.52260000
C       -1.58720000      -2.85780000       1.36920000
O       -1.45730000      -2.17910000       2.58540000
H       -0.07810000       1.83070000       0.16140000
H        0.40500000      -0.50600000      -1.32920000
H        0.94220000      -0.28390000       0.34000000
H       -1.42380000      -0.04470000       1.08510000
H       -3.28730000      -0.09160000      -0.51570000
H       -2.11360000       0.14000000      -1.82440000
H       -3.24610000      -2.52890000      -0.99230000
H       -1.80830000      -2.32590000      -2.01020000
H       -0.31010000      -4.01410000      -0.06870000
H        0.58870000      -2.77160000       0.93000000
H       -2.38120000      -3.60610000       1.34310000
H       -1.02780000      -2.76990000       3.21270000
