22
Properties=species:S:1:pos:R:3 gdb_113438=T pbc="F F F"
C        0.79800000       1.56480000       0.38670000
C       -0.08250000       0.40870000      -0.09950000
C        0.49050000      -0.28060000      -1.31710000
N        1.58840000      -1.24610000      -1.07040000
C        0.30290000      -1.71850000      -1.59560000
C       -0.51120000      -2.79560000      -0.86630000
C       -0.32960000      -3.69560000      -2.12550000
O       -1.40030000      -4.47700000      -2.58630000
C        0.11460000      -2.44020000      -2.93670000
H        1.79880000       1.20130000       0.63900000
H        0.90460000       2.33520000      -0.38550000
H        0.37380000       2.04160000       1.27560000
H       -0.19690000      -0.33090000       0.70040000
H       -1.08920000       0.77750000      -0.33810000
H        0.59800000       0.36180000      -2.19280000
H        2.27520000      -1.19650000      -1.81980000
H       -0.11660000      -3.16200000       0.08310000
H       -1.56030000      -2.50420000      -0.73280000
H        0.50480000      -4.38930000      -1.99260000
H       -2.16780000      -3.90340000      -2.68500000
H       -0.71770000      -2.02700000      -3.51950000
H        0.98450000      -2.54050000      -3.59270000
