11
Properties=species:S:1:pos:R:3 gdb_133405=T pbc="F F F"
F        0.04640000       0.01730000       0.00280000
C       -0.02330000       1.34060000       0.01090000
C       -1.21840000       1.98460000       0.03050000
F       -2.36430000       1.33500000       0.04250000
C       -1.27060000       3.44180000       0.03910000
O       -2.27200000       4.12720000       0.05640000
N        0.01490000       4.00160000       0.02470000
N        1.20430000       3.39060000       0.00540000
C        1.18870000       2.08980000      -0.00140000
H        0.05060000       5.01300000       0.02970000
H        2.14270000       1.57700000      -0.01710000
