15
Properties=species:S:1:pos:R:3 gdb_19577=T pbc="F F F"
O        0.00910000      -0.02830000       0.19740000
C       -0.00850000       1.15260000       0.01860000
C       -1.08100000       2.25830000      -0.00480000
C       -0.04370000       2.97700000       0.95140000
C        1.01040000       2.30750000       0.00630000
N        0.75400000       3.05690000      -1.26340000
C        0.08900000       2.26720000      -2.32410000
C       -0.74210000       2.97430000      -1.31490000
H       -2.12070000       2.08290000       0.25870000
H       -0.05040000       4.06790000       0.92560000
H       -0.03860000       2.59510000       1.97400000
H        2.06420000       2.19980000       0.25130000
H        0.19380000       2.70450000      -3.31270000
H        0.15180000       1.18210000      -2.30360000
H       -1.27750000       3.88370000      -1.57330000
