16
Properties=species:S:1:pos:R:3 gdb_32023=T pbc="F F F"
C       -0.12040000       1.49300000       0.04270000
N       -0.07470000       0.04160000      -0.04120000
C       -1.16110000      -0.75580000      -0.00740000
C       -1.15000000      -2.13310000       0.01890000
C       -2.41530000      -2.75140000       0.03840000
N       -3.56650000      -2.12980000       0.02170000
C       -3.56300000      -0.75960000      -0.02100000
N       -4.54680000       0.03640000      -0.06310000
O       -2.30620000      -0.08090000      -0.01350000
H        0.83900000       1.88870000      -0.29550000
H       -0.91050000       1.87840000      -0.60260000
H       -0.30930000       1.84400000       1.06430000
H        0.81520000      -0.41650000       0.05890000
H       -0.22640000      -2.69320000       0.02760000
H       -2.46240000      -3.84000000       0.07100000
H       -5.39780000      -0.52330000      -0.05940000
