18
Properties=species:S:1:pos:R:3 gdb_86644=T pbc="F F F"
C        0.20040000       1.45100000       0.01370000
C       -0.09540000      -0.04960000      -0.07640000
C        0.69310000      -0.76210000      -1.19910000
N        1.86470000      -1.28280000      -0.50180000
C        2.95490000      -1.77720000      -1.20040000
N        3.96300000      -2.33500000      -0.66960000
C        1.63810000      -1.33780000       0.89280000
O        2.36910000      -1.76590000       1.74550000
N        0.37030000      -0.80000000       1.08300000
H        1.27760000       1.63130000       0.08930000
H       -0.17970000       1.97430000      -0.87000000
H       -0.28100000       1.88870000       0.89420000
H       -1.16990000      -0.20200000      -0.22020000
H        0.10130000      -1.57590000      -1.63740000
H        0.97840000      -0.07230000      -1.99870000
H        2.82380000      -1.60630000      -2.27790000
H        4.62850000      -2.59310000      -1.39630000
H        0.16940000      -0.47920000       2.01790000
