9
Properties=species:S:1:pos:R:3 gdb_338=T pbc="F F F"
O        0.04940000       1.47660000       0.12900000
C        0.01590000       0.08770000       0.06680000
C        0.68190000      -0.42180000      -1.22480000
O        1.14870000       0.36030000      -2.00810000
C        0.69190000      -0.55390000       1.21440000
N        1.22650000      -1.08170000       2.09190000
H        0.59680000       1.75960000      -0.62280000
H       -1.02560000      -0.27550000       0.05830000
H        0.69980000      -1.51630000      -1.37550000
