22
Properties=species:S:1:pos:R:3 gdb_64420=T pbc="F F F"
C       -0.05270000       1.53240000       0.03090000
C        0.01470000       0.00300000      -0.01050000
O       -1.30530000      -0.55260000       0.10040000
C        0.69580000      -0.49400000      -1.30130000
C        0.89340000      -2.01340000      -1.27790000
C        1.87560000      -2.44170000      -0.17410000
C        1.63870000      -1.70800000       1.13970000
N        2.19340000      -0.34050000       1.23560000
C        0.73750000      -0.52660000       1.21800000
H        0.95350000       1.95980000       0.05510000
H       -0.56810000       1.92370000      -0.85490000
H       -0.59950000       1.86560000       0.91840000
H       -1.83420000      -0.18530000      -0.61590000
H        0.07170000      -0.19820000      -2.15480000
H        1.65940000       0.01390000      -1.41690000
H       -0.08140000      -2.48030000      -1.10000000
H        1.24960000      -2.36860000      -2.25050000
H        1.79080000      -3.52070000      -0.00540000
H        2.90710000      -2.25120000      -0.49310000
H        1.70690000      -2.31790000       2.03790000
H        2.51350000      -0.15110000       2.18100000
H        0.18280000      -0.36980000       2.14110000
