20
Properties=species:S:1:pos:R:3 gdb_102863=T pbc="F F F"
C       -0.07560000       1.86840000       0.62980000
C        0.00500000       0.42100000       0.14930000
N        0.80890000      -0.44260000       1.02380000
C        0.50930000      -1.85150000       0.81160000
C       -0.85050000      -2.22340000       1.38550000
O       -1.56610000      -3.07980000       0.93910000
C        2.23710000      -0.17170000       0.97140000
C        2.94390000      -0.68390000       2.21750000
O        4.07300000      -1.09600000       2.24050000
H        0.89070000       2.38020000       0.58540000
H       -0.76660000       2.43150000      -0.00460000
H       -0.43670000       1.91050000       1.66120000
H       -1.00860000       0.00470000       0.12940000
H        0.36950000       0.38420000      -0.89400000
H        0.55690000      -2.17280000      -0.24290000
H        1.24380000      -2.45940000       1.35960000
H       -1.12110000      -1.63500000       2.29180000
H        2.74520000      -0.57120000       0.07740000
H        2.39310000       0.91450000       0.96940000
H        2.31490000      -0.62280000       3.13510000
