18
Properties=species:S:1:pos:R:3 gdb_97210=T pbc="F F F"
C       -0.07740000       1.39820000       0.00550000
N       -0.04540000      -0.05400000       0.04080000
C        0.41960000      -0.64900000       1.04620000
O        0.87870000      -0.06000000       2.19510000
C        1.45850000      -1.04750000       3.06880000
C        0.83830000      -2.38930000       2.64990000
C        0.55270000      -2.14130000       1.18230000
C       -0.04230000      -3.07450000       0.22850000
O        1.36180000      -2.80170000       0.19960000
H        0.33850000       1.73740000      -0.94920000
H       -1.12030000       1.73650000       0.03400000
H        0.46750000       1.88110000       0.82430000
H        2.54640000      -1.04450000       2.93310000
H        1.22990000      -0.75340000       4.09490000
H        1.50470000      -3.23970000       2.80060000
H       -0.09390000      -2.56680000       3.19590000
H       -0.31810000      -4.07410000       0.56310000
H       -0.61000000      -2.66660000      -0.60470000
