20
Properties=species:S:1:pos:R:3 gdb_8512=T pbc="F F F"
C       -0.08090000       1.47490000       0.00580000
C        0.03410000      -0.02020000      -0.00880000
C        0.93860000      -0.87380000      -0.89740000
C        0.07130000      -2.09040000      -0.45900000
C       -0.07840000      -3.30270000      -1.33880000
C        0.40410000      -2.22560000       1.05730000
C       -0.29180000      -0.87920000       1.22670000
C       -1.06820000      -1.05320000      -0.06010000
H        0.83020000       1.94310000       0.39770000
H       -0.25090000       1.87230000      -1.00160000
H       -0.91590000       1.80120000       0.63560000
H        0.78770000      -0.63390000      -1.95570000
H        2.01440000      -0.91600000      -0.68200000
H        0.87880000      -3.82870000      -1.44160000
H       -0.80340000      -4.01170000      -0.92370000
H       -0.41550000      -3.02860000      -2.34480000
H       -0.17110000      -3.03270000       1.52240000
H        1.46140000      -2.32180000       1.33500000
H       -0.63450000      -0.41310000       2.14250000
H       -2.12320000      -0.98050000      -0.28550000
