13
Properties=species:S:1:pos:R:3 gdb_16792=T pbc="F F F"
O        0.03940000      -0.02720000      -0.08330000
C        0.03840000       1.17380000      -0.00050000
N       -1.09760000       1.97450000       0.15050000
C       -0.86670000       3.34750000       0.02300000
O       -1.71890000       4.19550000      -0.03760000
C        0.62810000       3.51530000      -0.03110000
C        1.36630000       2.98930000       1.17880000
C        1.21030000       2.11730000      -0.04620000
H       -2.02650000       1.58690000       0.22850000
H        1.02770000       4.34540000      -0.59710000
H        2.35400000       3.39870000       1.35710000
H        0.80510000       2.74600000       2.07420000
H        2.07640000       1.82660000      -0.62430000
