16
Properties=species:S:1:pos:R:3 gdb_13314=T pbc="F F F"
C        0.01680000      -1.22280000       0.16150000
C       -0.00720000      -0.03620000      -0.02430000
C       -0.02920000       1.40440000      -0.23140000
C        1.34660000       2.05230000      -0.06160000
O        2.23160000       1.65170000      -1.09450000
C        2.90460000       2.80900000      -1.58320000
C        2.45990000       3.92140000      -0.62280000
O        1.20420000       3.44890000      -0.15880000
H        0.03770000      -2.27280000       0.31630000
H       -0.38890000       1.64970000      -1.23680000
H       -0.70960000       1.88050000       0.48450000
H        1.78540000       1.77610000       0.91350000
H        3.98740000       2.64470000      -1.57140000
H        2.58880000       3.00990000      -2.61460000
H        3.16720000       4.03590000       0.21220000
H        2.31170000       4.89130000      -1.10160000
