21
Properties=species:S:1:pos:R:3 gdb_64061=T pbc="F F F"
C        0.08010000       1.56110000       0.18970000
C       -0.04800000       0.04030000       0.00320000
O       -1.43980000      -0.31320000      -0.06490000
C        0.49750000      -0.41470000      -1.36280000
C        1.95070000      -0.12470000      -1.63100000
C        2.99700000      -0.41810000      -0.86080000
C        3.02810000      -1.11090000       0.47300000
C        1.80510000      -1.17330000       1.34500000
C        0.57350000      -0.69780000       1.17190000
H        1.12570000       1.87570000       0.15630000
H       -0.47610000       2.08020000      -0.59770000
H       -0.33030000       1.86530000       1.15990000
H       -1.87470000       0.05180000       0.71310000
H        0.29790000      -1.48980000      -1.44670000
H       -0.11970000       0.06760000      -2.12680000
H        2.15930000       0.36400000      -2.58020000
H        3.98490000      -0.15990000      -1.23860000
H        3.39060000      -2.14180000       0.31670000
H        3.82880000      -0.65450000       1.07600000
H        1.99850000      -1.67910000       2.29060000
H       -0.13080000      -0.84990000       1.98980000
