19
Properties=species:S:1:pos:R:3 gdb_104134=T pbc="F F F"
C       -0.16610000       1.33480000      -0.18490000
O       -0.07590000      -0.08270000      -0.24190000
C        0.80920000      -0.62360000      -1.18830000
C        2.25500000      -0.19090000      -0.99430000
C        0.56200000      -2.14290000      -1.16880000
C       -0.61490000      -2.29850000      -2.13310000
C       -0.47360000      -1.10110000      -3.06480000
O       -1.00120000      -0.90540000      -4.11880000
O        0.40690000      -0.20970000      -2.51490000
H        0.72200000       1.78490000       0.27680000
H       -0.31500000       1.76680000      -1.17990000
H       -1.03390000       1.55980000       0.43840000
H        2.58960000      -0.46560000       0.00980000
H        2.89460000      -0.68290000      -1.73020000
H        2.36620000       0.88800000      -1.12100000
H        1.44650000      -2.66540000      -1.54250000
H        0.35710000      -2.48060000      -0.15280000
H       -0.62340000      -3.22370000      -2.71040000
H       -1.57750000      -2.21400000      -1.61970000
