14
Properties=species:S:1:pos:R:3 gdb_125798=T pbc="F F F"
C       -0.01500000       1.50560000      -0.03180000
C       -0.00800000       0.01650000       0.06790000
N       -0.04180000      -0.72380000      -1.02740000
O       -0.02590000      -2.09030000      -0.63930000
C        0.01810000      -2.11270000       0.69710000
C        0.03110000      -0.84230000       1.19030000
O        0.07570000      -0.84630000       2.54790000
C        0.09020000      -2.17580000       2.88640000
C        0.05660000      -3.01090000       1.80300000
H        0.88390000       1.93070000       0.42620000
H       -0.05330000       1.80630000      -1.08000000
H       -0.88040000       1.92670000       0.48980000
H        0.12540000      -2.37500000       3.94530000
H        0.05990000      -4.08790000       1.82400000
