17
Properties=species:S:1:pos:R:3 gdb_83018=T pbc="F F F"
C       -0.20460000       1.51190000       0.08620000
N        0.06070000       0.08890000      -0.04310000
C        0.67720000      -0.47890000      -1.22880000
C        1.47660000       0.41230000      -2.18340000
C        2.60250000       0.94470000      -1.33480000
C        2.58340000       0.41560000      -0.09880000
C        3.51990000       0.68930000       0.93460000
N        4.27320000       0.88530000       1.79270000
C        1.39870000      -0.48870000       0.09470000
H        0.58200000       2.17630000      -0.29910000
H       -1.13460000       1.73600000      -0.44540000
H       -0.35430000       1.74310000       1.14490000
H        0.18780000      -1.36040000      -1.63230000
H        1.86260000      -0.17230000      -3.02780000
H        0.87600000       1.22070000      -2.62040000
H        3.31510000       1.68370000      -1.68200000
H        1.48270000      -1.34620000       0.75460000
