20
Properties=species:S:1:pos:R:3 gdb_55762=T pbc="F F F"
C       -0.13260000       1.51930000      -0.24010000
C       -0.13710000       0.03200000      -0.56980000
O        0.55280000      -0.44520000      -1.44720000
N       -0.98220000      -0.71720000       0.21890000
C       -1.06030000      -2.13230000       0.18050000
C       -1.33140000      -2.86170000      -1.09770000
C       -2.29700000      -3.03650000       0.04250000
C       -1.71050000      -4.01150000       1.07070000
C       -0.45990000      -3.08260000       1.22830000
H        0.64230000       1.72350000       0.50680000
H        0.11680000       2.07600000      -1.14390000
H       -1.08940000       1.87190000       0.15590000
H       -1.44760000      -0.24620000       0.97940000
H       -1.67280000      -2.22970000      -1.90880000
H       -0.68110000      -3.67630000      -1.40760000
H       -3.33990000      -2.75630000      -0.04690000
H       -2.29550000      -4.08270000       1.99030000
H       -1.51800000      -5.02340000       0.70070000
H        0.52050000      -3.50600000       0.98780000
H       -0.41130000      -2.63120000       2.22300000
