20
Properties=species:S:1:pos:R:3 gdb_106786=T pbc="F F F"
C       -0.23180000       1.32300000       0.33060000
C        0.13120000      -0.12600000       0.12340000
C        0.30130000      -0.65590000      -1.30530000
C        1.33270000      -1.75370000      -1.15660000
C        1.76040000      -1.87290000       0.10120000
C        1.05640000      -0.90550000       1.00020000
C        1.77630000      -0.37470000       2.23070000
O        0.91640000       0.22400000       3.19260000
N       -0.41650000      -1.16150000       1.04040000
H        0.45530000       1.98010000      -0.21460000
H       -1.24320000       1.52720000      -0.04140000
H       -0.19330000       1.59250000       1.38890000
H       -0.64660000      -1.03610000      -1.70510000
H        0.64270000       0.13310000      -1.98940000
H        1.64480000      -2.37710000      -1.98710000
H        2.48960000      -2.59070000       0.46070000
H        2.35850000      -1.19010000       2.68490000
H        2.49180000       0.40210000       1.93840000
H        0.51210000      -0.48130000       3.70710000
H       -0.77900000      -0.65520000       1.85060000
