17
Properties=species:S:1:pos:R:3 gdb_107588=T pbc="F F F"
C       -0.02390000       1.50180000       0.40010000
C        0.01860000       0.06700000      -0.14410000
C       -1.34550000      -0.55900000      -0.21550000
O       -2.00390000      -0.89910000       1.02950000
C       -1.73290000      -1.94070000       0.09510000
C       -2.94740000      -2.27320000      -0.74120000
O       -3.31740000      -1.04480000      -1.39210000
C       -2.38040000      -0.07230000      -1.21270000
O       -2.41610000       0.97360000      -1.79380000
H        0.98450000       1.92190000       0.44770000
H       -0.63650000       2.13800000      -0.24220000
H       -0.44810000       1.51680000       1.40830000
H        0.45490000       0.05850000      -1.14980000
H        0.65330000      -0.56210000       0.48920000
H       -1.02960000      -2.70860000       0.40360000
H       -2.72120000      -3.02400000      -1.50620000
H       -3.79520000      -2.61130000      -0.13900000
