13
Properties=species:S:1:pos:R:3 gdb_3805=T pbc="F F F"
C        0.00940000       1.39680000       0.05850000
O        0.01110000      -0.02640000       0.01420000
C        0.62520000      -0.64120000       1.03920000
N        1.20060000       0.01470000       2.03940000
N        1.68530000      -0.97500000       2.83230000
C        1.42650000      -2.21240000       2.35210000
C        0.73150000      -2.04670000       1.17480000
H        1.03090000       1.79160000       0.05580000
H       -0.52330000       1.72390000      -0.83580000
H       -0.50000000       1.76170000       0.95670000
H        2.17490000      -0.72480000       3.67260000
H        1.74890000      -3.10100000       2.87200000
H        0.35510000      -2.80500000       0.51000000
