18
Properties=species:S:1:pos:R:3 gdb_78920=T pbc="F F F"
C       -0.14140000       1.50220000      -0.08710000
C        0.10200000       0.03620000       0.02070000
C        0.41350000      -1.02090000      -0.97290000
C        1.26630000      -1.86080000      -0.01260000
C        0.33010000      -2.98320000       0.48160000
O        0.95430000      -3.68350000       1.53850000
C       -0.54670000      -1.80510000       0.96430000
C        0.71010000      -0.89470000       1.11250000
N       -0.93250000      -1.01000000      -0.26660000
H        0.80190000       2.05870000      -0.11770000
H       -0.70080000       1.72310000      -1.00170000
H       -0.72550000       1.87110000       0.76360000
H        0.40340000      -1.00070000      -2.05570000
H        2.32120000      -2.02920000      -0.21710000
H       -0.10000000      -3.65980000      -0.27010000
H        0.27940000      -4.19390000       1.99750000
H       -1.35600000      -1.91950000       1.68600000
H        1.23700000      -0.63960000       2.02650000
