13
Properties=species:S:1:pos:R:3 gdb_2676=T pbc="F F F"
O       -0.08130000       1.44540000       0.01060000
C        0.04790000       0.03650000       0.00190000
C       -1.37710000      -0.53030000       0.01230000
C       -1.41390000      -1.98230000       0.00510000
C       -1.43870000      -3.19020000      -0.00130000
C       -1.43190000      -4.62950000      -0.00940000
O       -2.42330000      -5.32280000      -0.00340000
H        0.79880000       1.83260000       0.00400000
H        0.57720000      -0.32280000      -0.89310000
H        0.59390000      -0.33220000       0.88280000
H       -1.90270000      -0.14920000       0.89650000
H       -1.91920000      -0.14010000      -0.85800000
H       -0.41640000      -5.07620000      -0.02200000
