14
Properties=species:S:1:pos:R:3 gdb_53073=T pbc="F F F"
C       -0.10630000       1.42370000       0.01220000
C       -0.01800000      -0.02500000       0.01110000
C        0.06170000      -1.22700000       0.01180000
C        0.14240000      -2.63930000       0.00950000
N        1.17430000      -3.35230000       0.24500000
C        0.73320000      -4.73350000       0.11860000
C       -0.74740000      -4.66130000      -0.23380000
O       -1.56050000      -5.50430000      -0.44080000
O       -1.04260000      -3.30250000      -0.28350000
H        0.58680000       1.85650000      -0.71710000
H       -1.11810000       1.75610000      -0.24080000
H        0.14860000       1.82840000       0.99750000
H        1.29050000      -5.26360000      -0.66190000
H        0.88150000      -5.28970000       1.05110000
