20
Properties=species:S:1:pos:R:3 gdb_66645=T pbc="F F F"
C       -0.02550000       1.51060000       0.03830000
C        0.04010000       0.02430000       0.02110000
C        0.96250000      -0.99650000      -0.57700000
C        0.59920000      -1.03000000       0.93040000
C       -0.74990000      -1.73820000       0.95100000
C       -0.76850000      -3.21410000       0.55600000
C       -0.40350000      -3.18050000      -0.95850000
C       -0.22200000      -1.68960000      -1.23940000
N       -1.13850000      -0.92650000      -0.28400000
H        0.95540000       1.93190000       0.28320000
H       -0.33000000       1.90620000      -0.93700000
H       -0.74350000       1.86810000       0.78470000
H        1.98740000      -0.87980000      -0.90950000
H        1.35900000      -0.93760000       1.69760000
H       -1.37820000      -1.47790000       1.80550000
H       -0.05880000      -3.79460000       1.15230000
H       -1.76050000      -3.64810000       0.71290000
H        0.50570000      -3.74270000      -1.19000000
H       -1.21080000      -3.59750000      -1.56790000
H       -0.39480000      -1.38740000      -2.27450000
