19
Properties=species:S:1:pos:R:3 gdb_47420=T pbc="F F F"
N        0.10750000       1.34830000      -0.27130000
C        0.03570000       0.08950000      -0.21290000
O        1.10890000      -0.75510000      -0.23070000
C        0.67990000      -2.12330000      -0.11900000
C       -0.79780000      -2.12220000      -0.53130000
C       -1.25490000      -0.71170000      -0.10740000
C       -1.81510000      -0.65980000       1.30340000
C       -2.72020000       0.43700000       1.70790000
N       -3.24020000      -0.93700000       1.54610000
H        1.08200000       1.65180000      -0.31730000
H        1.31940000      -2.72820000      -0.76560000
H        0.81960000      -2.45480000       0.91720000
H       -0.88400000      -2.23970000      -1.61530000
H       -1.36840000      -2.92130000      -0.05330000
H       -1.99370000      -0.28660000      -0.79200000
H       -1.16400000      -1.09010000       2.06350000
H       -2.70980000       0.80450000       2.72950000
H       -2.96570000       1.18530000       0.95980000
H       -3.73250000      -1.01110000       0.65800000
