17
Properties=species:S:1:pos:R:3 gdb_71633=T pbc="F F F"
C        0.03910000       1.46850000      -0.08020000
C       -0.01680000      -0.01900000       0.02320000
O        0.64200000      -0.85590000      -1.00670000
C        0.06680000      -1.84420000      -0.08970000
C        0.57670000      -0.97610000       1.10180000
O       -0.09110000      -1.04460000       2.33800000
C       -1.37390000      -1.60520000       2.17890000
O       -2.06970000      -1.05770000       1.08280000
C       -1.23650000      -0.98800000      -0.04840000
H        1.07410000       1.82270000      -0.05600000
H       -0.42750000       1.81300000      -1.00820000
H       -0.49900000       1.91120000       0.76380000
H        0.22570000      -2.89490000      -0.32930000
H        1.65520000      -0.92910000       1.25720000
H       -1.27790000      -2.69560000       2.03880000
H       -1.94770000      -1.38700000       3.08100000
H       -1.83700000      -0.95200000      -0.95820000
