13
Properties=species:S:1:pos:R:3 gdb_130283=T pbc="F F F"
N        0.03530000       1.31780000       0.15230000
C       -0.01350000      -0.04100000       0.03580000
N       -1.14020000      -0.71660000      -0.05220000
O       -0.67040000      -2.07130000      -0.08000000
C        0.65470000      -1.98910000      -0.01290000
O        1.39120000      -3.09590000      -0.03260000
C        0.77440000      -4.33240000      -0.00750000
N        1.51210000      -5.34130000      -0.09830000
N        1.14200000      -0.79290000       0.05850000
H        0.90380000       1.73430000      -0.14430000
H       -0.79530000       1.81210000      -0.13470000
H       -0.30860000      -4.27660000       0.09850000
H        0.95210000      -6.19080000      -0.05710000
