23
Properties=species:S:1:pos:R:3 gdb_107938=T pbc="F F F"
C       -0.05680000       1.51070000      -0.06990000
C       -0.01710000      -0.02200000      -0.01440000
C        0.71120000      -0.54990000       1.19740000
C        2.24310000      -0.32530000       1.39250000
C        2.21980000      -1.60410000       2.22230000
C        0.94370000      -2.07930000       1.56420000
C        0.89510000      -1.63430000       3.00770000
C        0.71870000      -2.46770000       4.24190000
C        0.14710000      -0.35390000       2.63780000
H        0.95340000       1.93190000      -0.10320000
H       -0.59290000       1.85950000      -0.95770000
H       -0.56080000       1.92650000       0.80910000
H       -1.04220000      -0.41600000      -0.02020000
H        0.46420000      -0.40970000      -0.92220000
H        2.79050000      -0.46790000       0.45480000
H        2.56400000       0.61090000       1.86560000
H        3.05910000      -2.20950000       2.54260000
H        0.67960000      -3.00950000       1.08010000
H        1.27810000      -3.40690000       4.16850000
H        1.07500000      -1.94070000       5.13530000
H       -0.33510000      -2.72190000       4.40460000
H        0.39640000       0.57820000       3.16120000
H       -0.93690000      -0.51080000       2.66830000
