21
Properties=species:S:1:pos:R:3 gdb_84870=T pbc="F F F"
C        0.01300000       1.56940000       0.06380000
C        0.02510000       0.06130000      -0.01550000
C        0.05250000      -0.54060000      -1.20990000
C        0.04430000      -2.01600000      -1.54440000
O        1.41590000      -2.46570000      -1.53970000
C       -0.83120000      -2.87600000      -0.65230000
C       -0.68280000      -2.94470000       0.66920000
C        0.32200000      -2.10360000       1.41370000
C       -0.00990000      -0.60410000       1.34420000
H        0.90000000       1.94460000       0.59000000
H       -0.01690000       2.03000000      -0.92670000
H       -0.85690000       1.92480000       0.63190000
H        0.10050000       0.10470000      -2.08440000
H       -0.34250000      -2.10100000      -2.57100000
H        1.39830000      -3.41560000      -1.70340000
H       -1.59260000      -3.47410000      -1.14730000
H       -1.32690000      -3.60340000       1.24740000
H        0.36550000      -2.40400000       2.46520000
H        1.31640000      -2.26180000       0.98340000
H        0.69230000      -0.06400000       1.99440000
H       -1.00200000      -0.42410000       1.78740000
