20
Properties=species:S:1:pos:R:3 gdb_38423=T pbc="F F F"
C        0.00030000       1.50240000       0.78360000
C        1.15390000       0.93590000       0.03830000
C        2.15730000       0.09720000       0.81090000
C        1.28920000      -0.84580000       1.66550000
C        1.92660000      -2.15840000       2.17190000
O        1.77930000      -1.76950000       3.55100000
C        1.16030000      -0.52590000       3.17880000
C       -0.01160000      -0.95640000       0.83820000
N       -0.16010000       0.25680000       0.01720000
H        0.00560000       1.45970000       1.87040000
H       -0.54010000       2.35190000       0.37640000
H        1.47320000       1.40010000      -0.89040000
H        2.76110000      -0.48760000       0.10560000
H        2.85070000       0.69260000       1.41340000
H        1.36330000      -3.07270000       1.94000000
H        2.97830000      -2.31040000       1.89550000
H        1.73390000       0.34220000       3.53110000
H        0.13250000      -0.45010000       3.55990000
H        0.05930000      -1.80870000       0.15090000
H       -0.89890000      -1.10930000       1.46150000
