10
Properties=species:S:1:pos:R:3 gdb_21776=T pbc="F F F"
O       -0.05720000      -0.05050000       0.00490000
C        0.01020000       1.15040000       0.00880000
N       -1.11470000       1.96880000       0.02790000
N       -1.19680000       3.33170000       0.03590000
N       -0.13540000       3.99480000       0.02510000
N        1.05340000       3.32340000       0.00680000
C        1.29540000       1.95330000      -0.00230000
O        2.40410000       1.48730000      -0.02030000
H       -2.01830000       1.51210000       0.03760000
H        1.86000000       3.93520000      -0.00100000
