10
Properties=species:S:1:pos:R:3 gdb_133417=T pbc="F F F"
F        0.00840000       0.06570000       0.00340000
C       -0.02340000       1.37960000       0.01060000
C       -1.25410000       2.04790000       0.03050000
N       -1.26640000       3.36550000       0.03740000
C       -0.05400000       3.94680000       0.02410000
N        1.12940000       3.32960000       0.00510000
N        1.13460000       2.00080000      -0.00180000
C       -0.01480000       5.38700000       0.03090000
N        0.00720000       6.54200000       0.03650000
H       -2.19710000       1.50880000       0.04040000
