14
Properties=species:S:1:pos:R:3 gdb_46824=T pbc="F F F"
O        0.01050000       0.04370000       0.22710000
C       -0.00080000       1.22850000       0.04730000
C       -1.24520000       2.09660000      -0.19700000
O       -0.80090000       3.34790000      -0.70360000
C        0.57160000       3.49130000      -0.48360000
C        1.08140000       3.38500000       0.90340000
C        1.18440000       2.15950000      -0.04070000
C        2.46400000       1.67190000      -0.44420000
N        3.50560000       1.29220000      -0.77370000
H       -1.89850000       1.61970000      -0.93280000
H       -1.80980000       2.21400000       0.73840000
H        1.05460000       4.12460000      -1.21730000
H        2.03040000       3.85470000       1.13290000
H        0.38270000       3.32210000       1.73020000
