16
Properties=species:S:1:pos:R:3 gdb_28216=T pbc="F F F"
C        0.10290000       1.43080000       0.06570000
C       -0.00250000      -0.04560000      -0.04970000
N       -0.22390000      -0.75220000      -1.12930000
C       -0.18530000      -2.03520000      -0.65360000
C        0.05970000      -2.07260000       0.66230000
C       -0.03150000      -3.45120000       1.20850000
C       -0.13680000      -4.19980000      -0.18160000
O       -0.40000000      -3.23120000      -1.24980000
O        0.17000000      -0.77840000       1.09610000
H        1.11200000       1.73480000       0.36500000
H       -0.12690000       1.87620000      -0.90240000
H       -0.59390000       1.81920000       0.81540000
H        0.84150000      -3.80150000       1.76900000
H       -0.91630000      -3.61970000       1.83660000
H        0.80940000      -4.69490000      -0.41890000
H       -0.94210000      -4.93550000      -0.20510000
