21
Properties=species:S:1:pos:R:3 gdb_57781=T pbc="F F F"
C        0.03980000       1.47660000       0.04640000
C       -0.01100000      -0.06220000      -0.04420000
C       -1.46380000      -0.57710000      -0.00800000
C        0.69610000      -0.53740000      -1.23540000
C        1.28540000      -0.87730000      -2.23410000
C        1.95440000      -1.37170000      -3.40080000
C        3.32950000      -2.03320000      -3.27020000
C        2.11940000      -2.88310000      -3.51780000
O        1.62210000      -3.70580000      -2.51500000
H        1.07180000       1.83660000       0.05020000
H       -0.47480000       1.92920000      -0.80680000
H       -0.45080000       1.81750000       0.96360000
H        0.50930000      -0.46530000       0.83620000
H       -2.02900000      -0.19560000      -0.86390000
H       -1.49690000      -1.66950000      -0.04100000
H       -1.96150000      -0.24440000       0.90850000
H        1.76130000      -0.82900000      -4.32120000
H        4.03740000      -1.87220000      -4.07580000
H        3.75600000      -2.07220000      -2.27490000
H        1.99080000      -3.31210000      -4.50820000
H        1.08830000      -3.15610000      -1.92450000
