23
Properties=species:S:1:pos:R:3 gdb_63633=T pbc="F F F"
C        0.19220000       1.52280000      -0.43790000
C        0.06130000       0.05800000      -0.09050000
O       -1.21950000      -0.46850000      -0.35310000
C        1.22940000      -0.88530000      -0.24730000
C        0.69460000      -0.54340000       1.13620000
C        1.47740000       0.23370000       2.17420000
C        2.90240000       0.63330000       1.83410000
C        0.68620000       1.16210000       3.07490000
C        1.21920000      -0.13850000       3.61930000
H        1.18030000       1.91710000      -0.19140000
H        0.03280000       1.67730000      -1.51270000
H       -0.55660000       2.11230000       0.10020000
H       -1.34200000      -0.47660000      -1.30930000
H        1.02630000      -1.87970000      -0.62950000
H        2.18550000      -0.46920000      -0.54720000
H        0.06930000      -1.32600000       1.55660000
H        2.95830000       1.29540000       0.96280000
H        3.36030000       1.16650000       2.67300000
H        3.51900000      -0.24670000       1.62030000
H        1.15460000       2.08590000       3.39890000
H       -0.38210000       1.23970000       2.90380000
H        0.51060000      -0.93490000       3.82210000
H        2.05390000      -0.10200000       4.31160000
