15
Properties=species:S:1:pos:R:3 gdb_28110=T pbc="F F F"
C        0.09970000       1.44990000       0.03670000
C       -0.08090000      -0.02410000       0.00980000
C       -1.18770000      -0.80830000      -0.19300000
C       -0.70020000      -2.14720000      -0.09750000
C        0.64690000      -2.06500000       0.15270000
O        1.05870000      -0.77580000       0.22440000
N        1.26970000      -3.25920000       0.27380000
C        0.27630000      -4.11490000       0.09270000
N       -0.94080000      -3.50330000      -0.13670000
H        0.80710000       1.78210000      -0.73200000
H       -0.85800000       1.94380000      -0.14230000
H        0.48660000       1.79010000       1.00430000
H       -2.18490000      -0.44270000      -0.37920000
H        0.37070000      -5.18960000       0.11430000
H       -1.81460000      -3.97450000      -0.29390000
