16
Properties=species:S:1:pos:R:3 gdb_37949=T pbc="F F F"
C       -0.04110000       1.56360000      -0.15380000
O        1.10440000       2.32300000       0.24690000
C        1.90430000       1.97370000       1.27900000
N        2.12290000       0.87480000       1.85640000
C        1.55680000      -0.38710000       1.50280000
C        1.20460000      -0.85280000       0.04710000
O        0.37010000      -1.90790000       0.65780000
C        0.02810000      -0.67370000       1.39790000
C       -0.05060000       0.05960000       0.03380000
H       -0.91690000       1.99070000       0.35480000
H       -0.14810000       1.78450000      -1.21990000
H        2.45920000       2.85860000       1.59130000
H        2.06260000      -1.18320000       2.05110000
H        1.86860000      -1.14290000      -0.76810000
H       -0.71560000      -0.74770000       2.19260000
H       -0.84910000      -0.35600000      -0.58880000
