19
Properties=species:S:1:pos:R:3 gdb_115638=T pbc="F F F"
O        0.43770000       0.25200000       0.93660000
C       -0.13700000       0.09750000      -0.36830000
C       -1.48710000      -0.58250000      -0.23160000
O       -2.18310000      -0.81920000      -1.47450000
C       -2.44030000      -2.20210000      -1.11540000
C       -1.52560000      -2.07100000       0.09710000
C       -0.36610000      -2.95900000       0.49100000
C       -1.47120000      -2.65380000       1.47170000
O       -1.23660000      -1.79700000       2.55000000
H        0.04450000       1.03190000       1.34180000
H       -0.23420000       1.06270000      -0.88140000
H        0.55170000      -0.52620000      -0.94450000
H       -2.11140000       0.01080000       0.45820000
H       -3.50340000      -2.37040000      -0.89630000
H       -2.11620000      -2.89390000      -1.90160000
H       -0.33010000      -3.94950000       0.04630000
H        0.60730000      -2.51100000       0.66850000
H       -2.15920000      -3.44430000       1.75500000
H       -0.56410000      -1.15770000       2.27030000
