19
Properties=species:S:1:pos:R:3 gdb_38729=T pbc="F F F"
C       -0.02800000       1.49940000      -0.15380000
C        1.34470000       0.85230000      -0.01530000
O        2.07890000       0.30870000      -1.09250000
C        1.45130000      -0.96690000      -1.28140000
C        1.81950000      -2.05060000      -0.24590000
C        1.30290000      -1.77080000       1.19820000
C       -0.01840000      -0.94380000       1.26250000
C        0.10390000       0.02440000       0.11780000
O        0.07310000      -0.69800000      -1.11690000
H       -0.30310000       2.17560000       0.65050000
H       -0.41000000       1.75560000      -1.13500000
H        1.94520000       1.11910000       0.84800000
H        1.65170000      -1.28690000      -2.30710000
H        1.36500000      -2.97290000      -0.62630000
H        2.90250000      -2.21190000      -0.23130000
H        1.19300000      -2.72050000       1.73170000
H        2.07030000      -1.20540000       1.73710000
H       -0.90520000      -1.57270000       1.13260000
H       -0.10280000      -0.44380000       2.23270000
