19
Properties=species:S:1:pos:R:3 gdb_81108=T pbc="F F F"
C       -0.18870000       1.53450000      -0.01320000
C        0.01500000       0.02750000      -0.01110000
C        1.20350000      -0.59350000      -0.84300000
C        2.13520000      -0.20860000       0.35200000
C        0.85760000      -0.61890000       1.18110000
C        0.75680000      -2.10330000       0.77310000
C        0.98360000      -2.08050000      -0.54240000
C        0.66110000      -0.24100000       2.55530000
C        0.48850000       0.10030000       3.69630000
H        0.73990000       2.10160000       0.08690000
H       -0.67090000       1.84690000      -0.94610000
H       -0.84530000       1.82570000       0.81370000
H       -0.94250000      -0.47690000      -0.16790000
H        1.41420000      -0.28730000      -1.86710000
H        3.02660000      -0.81880000       0.50760000
H        2.37790000       0.85330000       0.42010000
H        0.53720000      -2.91940000       1.44550000
H        1.00080000      -2.89200000      -1.25580000
H        0.33970000       0.39530000       4.70530000
