19
Properties=species:S:1:pos:R:3 gdb_95125=T pbc="F F F"
C        0.02550000       1.58420000      -0.29420000
C        0.02990000       0.08810000      -0.02120000
O        0.72140000      -0.56390000      -1.08900000
C        1.19430000      -1.82280000      -0.62680000
C        1.53190000      -1.62230000       0.84010000
C        2.26240000      -0.37550000       1.20110000
C        0.74580000      -0.36770000       1.24760000
C        0.06140000      -0.34190000       2.55770000
O        0.59070000      -0.58600000       3.61710000
H        1.04380000       1.98240000      -0.29460000
H       -0.42680000       1.78800000      -1.26850000
H       -0.55440000       2.11030000       0.47050000
H       -1.01300000      -0.27480000       0.02660000
H        0.42560000      -2.60510000      -0.73200000
H        2.05310000      -2.09750000      -1.24830000
H        1.55960000      -2.47360000       1.50990000
H        2.74830000      -0.34960000       2.16940000
H        2.73490000       0.19640000       0.40980000
H       -1.02320000      -0.09040000       2.50980000
