18
Properties=species:S:1:pos:R:3 gdb_34676=T pbc="F F F"
C       -0.14820000      -1.27150000      -0.15140000
C       -0.00370000      -0.08980000       0.02810000
C        0.02510000       1.34360000       0.11510000
C        0.38830000       2.23580000       1.26590000
C        1.43560000       1.88020000       2.32630000
C        2.59570000       2.80700000       1.79980000
C        2.51440000       1.80670000       0.60370000
C        2.24190000       0.72330000       1.68290000
N        1.20440000       2.25400000       0.02090000
H       -0.24670000      -2.32080000      -0.28220000
H       -0.77330000       1.76770000      -0.49500000
H       -0.25120000       3.09580000       1.45450000
H        1.11550000       1.86840000       3.36730000
H        2.35980000       3.85140000       1.58250000
H        3.51440000       2.72240000       2.38340000
H        3.29070000       1.71160000      -0.15360000
H        3.14850000       0.51210000       2.25330000
H        1.74500000      -0.20410000       1.41940000
