19
Properties=species:S:1:pos:R:3 gdb_38943=T pbc="F F F"
C        0.01490000       1.59810000       0.10810000
C        1.54000000       1.80960000       0.03540000
O        1.99470000       0.84670000       1.04180000
C        1.57560000      -0.13790000       0.06000000
C        2.04600000       0.81730000      -1.05720000
C        1.43330000       0.65840000      -2.44260000
O        0.02430000       0.49500000      -2.43820000
C       -0.44320000      -0.39260000      -1.43490000
C        0.03650000       0.04320000      -0.04420000
H       -0.35940000       1.91970000       1.08170000
H       -0.54160000       2.09830000      -0.68580000
H        1.94670000       2.81260000       0.16340000
H        1.97760000      -1.13930000       0.21760000
H        3.13630000       0.84820000      -1.11100000
H        1.63310000       1.53210000      -3.07240000
H        1.91280000      -0.21170000      -2.92520000
H       -1.53470000      -0.36790000      -1.50540000
H       -0.11690000      -1.42640000      -1.64620000
H       -0.50650000      -0.48500000       0.74240000
