21
Properties=species:S:1:pos:R:3 gdb_40571=T pbc="F F F"
C       -0.09360000       1.45860000      -0.08560000
C        1.31640000       0.94790000       0.06490000
C        0.16680000      -0.02810000      -0.02020000
C       -0.25020000      -0.80590000       1.20040000
C       -1.59150000      -1.54180000       1.26070000
C       -1.37870000      -2.96240000       0.70750000
C        0.09000000      -3.09500000       0.31200000
C        0.38950000      -2.19230000       1.54030000
C       -1.01370000      -2.62810000       2.13380000
H       -0.55720000       1.92810000       0.77630000
H       -0.38770000       1.89050000      -1.03590000
H        1.98970000       1.03080000      -0.78110000
H        1.80000000       1.07430000       1.02850000
H        0.06490000      -0.55710000      -0.96280000
H       -0.16370000      -0.16260000       2.08540000
H       -2.58500000      -1.11320000       1.30920000
H       -2.22070000      -3.54890000       0.36200000
H        0.44710000      -4.11510000       0.48050000
H        0.42120000      -2.75500000      -0.67560000
H        1.35190000      -2.24360000       2.04600000
H       -1.32800000      -3.03710000       3.08250000
