25
Properties=species:S:1:pos:R:3 gdb_93838=T pbc="F F F"
C       -0.13320000       1.57240000      -0.00400000
C       -0.01830000       0.04650000       0.01280000
C        0.70730000      -0.47160000      -1.23430000
O        0.84740000      -1.88210000      -1.23610000
C        1.57160000      -2.41470000      -0.12460000
C        3.07100000      -2.10120000      -0.21880000
C        0.89090000      -2.00190000       1.20040000
C        1.60220000      -2.55400000       2.43930000
C        0.70400000      -0.47720000       1.26310000
H        0.85700000       2.04350000      -0.01130000
H       -0.67520000       1.92390000      -0.88880000
H       -0.66590000       1.93690000       0.88040000
H       -1.02930000      -0.38450000       0.00050000
H        0.14260000      -0.23130000      -2.14120000
H        1.68860000       0.02500000      -1.32110000
H        1.45590000      -3.49920000      -0.23920000
H        3.30420000      -1.05260000      -0.01370000
H        3.63580000      -2.71120000       0.49160000
H        3.42450000      -2.33670000      -1.22660000
H       -0.11270000      -2.44770000       1.16030000
H        2.58440000      -2.09190000       2.58330000
H        1.01230000      -2.35800000       3.34090000
H        1.74930000      -3.63760000       2.36810000
H        1.68130000       0.01890000       1.35440000
H        0.14230000      -0.20920000       2.16690000
