20
Properties=species:S:1:pos:R:3 gdb_97224=T pbc="F F F"
C       -0.12320000       1.41700000       0.03740000
N       -0.07320000      -0.03420000       0.06140000
C        0.58950000      -0.63000000       0.95780000
O        1.24020000       0.03480000       1.97190000
C        2.50460000      -0.51890000       2.36550000
C        2.35290000      -1.91480000       2.95810000
C        1.52600000      -2.80400000       2.03180000
C        0.03460000      -2.83700000       2.19260000
C        0.64530000      -2.11470000       1.00330000
H        0.65750000       1.90400000       0.63230000
H       -0.05070000       1.75510000      -1.00170000
H       -1.09750000       1.75530000       0.41250000
H        3.17200000      -0.54260000       1.49330000
H        2.91710000       0.18760000       3.09020000
H        3.34940000      -2.34280000       3.11020000
H        1.88380000      -1.84440000       3.94560000
H        2.00090000      -3.72350000       1.70680000
H       -0.49840000      -3.75870000       1.98980000
H       -0.39700000      -2.22680000       2.97930000
H        0.51090000      -2.57750000       0.03420000
