18
Properties=species:S:1:pos:R:3 gdb_38384=T pbc="F F F"
C        0.13280000       1.44320000      -0.07680000
C        1.38930000       0.66910000      -0.02180000
N        0.02870000      -0.02000000       0.06750000
C        0.26670000      -0.58900000      -1.30980000
C        1.67180000       0.02230000      -1.35330000
C        2.43080000       0.49370000      -2.57320000
C        3.74480000       1.12420000      -2.12510000
O        4.06960000      -0.03390000      -1.30420000
C        2.89710000      -0.70860000      -1.77010000
H       -0.17290000       1.97540000       0.81900000
H       -0.17670000       1.90760000      -1.01180000
H        2.07480000       0.69570000       0.81790000
H        0.25150000      -1.68140000      -1.27460000
H       -0.45660000      -0.24160000      -2.05630000
H        1.98500000       0.56080000      -3.55700000
H        4.47890000       1.23620000      -2.93050000
H        3.69060000       2.04890000      -1.53870000
H        2.96820000      -1.77030000      -1.98290000
