15
Properties=species:S:1:pos:R:3 gdb_7752=T pbc="F F F"
N        0.02950000       1.34870000       0.17000000
C       -0.07710000      -0.02560000       0.00630000
N       -1.20540000      -0.61390000      -0.03560000
C       -1.16490000      -2.07180000      -0.01330000
C        0.01450000      -2.65130000      -0.80950000
C        1.32110000      -2.00580000      -0.39070000
O        2.40460000      -2.54390000      -0.37460000
N        1.16630000      -0.67320000      -0.03760000
H        0.71720000       1.79940000      -0.41950000
H       -0.87740000       1.79210000       0.11110000
H       -1.11290000      -2.42080000       1.02990000
H       -2.10730000      -2.45170000      -0.41820000
H        0.11300000      -3.73250000      -0.69320000
H       -0.12600000      -2.44340000      -1.87870000
H        2.00110000      -0.18570000       0.25590000
