19
Properties=species:S:1:pos:R:3 gdb_121521=T pbc="F F F"
C       -0.01150000       1.49950000       0.01230000
C        0.00490000      -0.01790000      -0.03580000
O        0.68460000      -0.41820000      -1.21330000
C        0.75180000      -1.81900000      -1.34690000
C        1.45580000      -2.18180000      -2.56760000
C        2.03680000      -2.50350000      -3.57530000
C        2.73540000      -2.88990000      -4.78720000
C        2.85770000      -4.38320000      -5.01620000
O        3.18440000      -2.06490000      -5.55350000
H        1.00850000       1.89290000       0.02510000
H       -0.52460000       1.90440000      -0.86410000
H       -0.53040000       1.84500000       0.91130000
H        0.51180000      -0.43130000       0.85270000
H       -1.02260000      -0.41970000      -0.03690000
H        1.26940000      -2.27340000      -0.48290000
H       -0.26000000      -2.26240000      -1.36820000
H        1.86300000      -4.83970000      -5.06250000
H        3.39670000      -4.56580000      -5.94700000
H        3.38590000      -4.85090000      -4.17830000
