19
Properties=species:S:1:pos:R:3 gdb_71932=T pbc="F F F"
O       -0.04600000       1.43520000       0.05650000
C        0.01890000       0.02540000       0.02790000
C        0.28030000      -0.62230000      -1.38500000
C       -1.02790000      -1.44980000      -1.25160000
C       -0.93800000      -2.76760000      -0.43530000
C       -1.11780000      -1.96400000       0.90940000
C        0.16620000      -1.68120000       1.64560000
C        0.79180000      -0.60800000       1.16100000
C       -1.36880000      -0.67580000       0.06310000
H        0.84250000       1.78030000      -0.08470000
H        0.18880000       0.13910000      -2.16520000
H        1.21750000      -1.17030000      -1.51960000
H       -1.67900000      -1.46460000      -2.12580000
H       -1.79000000      -3.42330000      -0.63520000
H       -0.01880000      -3.35280000      -0.52940000
H       -1.92650000      -2.33140000       1.54520000
H        0.55060000      -2.33130000       2.42480000
H        1.76250000      -0.23950000       1.47880000
H       -2.25100000      -0.05870000       0.22540000
