15
Properties=species:S:1:pos:R:3 gdb_11497=T pbc="F F F"
O        0.36650000       1.12770000       1.23330000
C        0.84660000       1.00440000       0.13840000
C        1.10460000       2.18110000      -0.81260000
O        1.36040000       1.93950000      -1.96790000
C        1.04430000       3.58020000      -0.22130000
N        2.34550000       3.82120000       0.39680000
C        3.35930000       4.43640000      -0.45710000
C        2.70220000       5.21750000       0.62830000
H        1.10400000       0.02330000      -0.31380000
H        0.79490000       4.29360000      -1.02220000
H        0.27880000       3.61470000       0.55960000
H        4.36990000       4.06020000      -0.33040000
H        3.08450000       4.67380000      -1.48280000
H        1.98710000       5.98170000       0.32920000
H        3.22320000       5.41920000       1.55940000
