27
Properties=species:S:1:pos:R:3 gdb_86461=T pbc="F F F"
C       -0.03260000       1.57050000       0.01090000
C        0.01600000       0.03940000       0.00200000
C        0.69320000      -0.49930000      -1.26830000
C        0.77140000      -2.03430000      -1.29670000
C        1.46370000      -2.54250000      -2.56520000
C        1.46150000      -2.55490000      -0.02560000
C        0.79550000      -2.04830000       1.26360000
C        1.51290000      -2.56920000       2.51300000
C        0.71610000      -0.51330000       1.25390000
H        0.97860000       1.99500000       0.00440000
H       -0.55990000       1.95790000      -0.86760000
H       -0.54440000       1.94840000       0.90270000
H       -1.02030000      -0.33240000       0.00930000
H        0.16080000      -0.13680000      -2.15710000
H        1.71250000      -0.08780000      -1.33210000
H       -0.25990000      -2.41990000      -1.29660000
H        2.49920000      -2.18540000      -2.61690000
H        1.48890000      -3.63730000      -2.59400000
H        0.94810000      -2.19520000      -3.46720000
H        1.47550000      -3.65250000      -0.03140000
H        2.51490000      -2.23440000      -0.03360000
H       -0.23540000      -2.43450000       1.27930000
H        2.54880000      -2.21090000       2.54830000
H        1.01490000      -2.23240000       3.42870000
H        1.54060000      -3.66410000       2.52960000
H        1.73630000      -0.10200000       1.30400000
H        0.19970000      -0.16070000       2.15610000
