19
Properties=species:S:1:pos:R:3 gdb_9664=T pbc="F F F"
C       -0.21570000       1.51930000      -0.27160000
C       -0.07120000       0.09530000       0.28110000
C       -1.38180000      -0.65470000       0.21670000
N       -1.74500000      -1.29420000      -1.04200000
C       -1.49180000      -2.16160000       0.12220000
C       -0.30010000      -3.09200000       0.08240000
C       -2.71600000      -2.70230000       0.78680000
O       -3.83020000      -2.27250000       0.59340000
H        0.73550000       2.05740000      -0.22380000
H       -0.54170000       1.49400000      -1.31580000
H       -0.95410000       2.09400000       0.29810000
H        0.68970000      -0.44110000      -0.29260000
H        0.27240000       0.13050000       1.32270000
H       -2.19690000      -0.18560000       0.76840000
H       -2.75680000      -1.24310000      -1.16810000
H        0.56800000      -2.60730000      -0.36440000
H       -0.02830000      -3.42200000       1.09140000
H       -0.52480000      -3.98220000      -0.51500000
H       -2.54160000      -3.54700000       1.48830000
