17
Properties=species:S:1:pos:R:3 gdb_52517=T pbc="F F F"
C        0.03630000       1.41110000       0.32130000
C        0.02240000      -0.02950000       0.13130000
C       -0.01020000      -1.22420000      -0.02450000
C       -0.04590000      -2.64520000      -0.21920000
N       -1.16700000      -3.22300000      -0.42410000
N        1.21890000      -3.28580000      -0.14920000
C        2.44110000      -2.56350000      -0.50230000
C        1.33190000      -4.56050000       0.37220000
O        2.36700000      -5.17940000       0.45750000
H        1.04520000       1.81930000       0.20160000
H       -0.61980000       1.90810000      -0.40100000
H       -0.31450000       1.67290000       1.32550000
H       -1.04850000      -4.21750000      -0.61790000
H        2.65310000      -1.77090000       0.22050000
H        3.25260000      -3.29010000      -0.49610000
H        2.34510000      -2.12070000      -1.49610000
H        0.36500000      -4.95070000       0.73120000
