21
Properties=species:S:1:pos:R:3 gdb_58051=T pbc="F F F"
C       -0.13710000       1.53960000       0.09790000
C        0.04880000       0.02540000      -0.00510000
O        0.77810000      -0.32900000      -1.17380000
C        0.81990000      -0.58090000       1.19570000
C        0.74690000      -2.04360000       1.15970000
C        0.68460000      -3.24380000       1.14310000
C        2.26890000      -0.10650000       1.26960000
C        2.64440000       1.10300000       2.09070000
C        3.04780000      -0.27730000       2.54480000
H        0.82760000       2.05190000       0.10610000
H       -0.71390000       1.90600000      -0.75930000
H       -0.68880000       1.81100000       1.00410000
H       -0.94260000      -0.45370000      -0.02160000
H        0.30630000       0.01890000      -1.93640000
H        0.30130000      -0.24240000       2.10410000
H        0.63390000      -4.30400000       1.12320000
H        2.81200000      -0.25630000       0.34370000
H        3.40940000       1.76880000       1.70580000
H        1.86080000       1.60760000       2.64680000
H        2.53090000      -0.70110000       3.39970000
H        4.09120000      -0.56320000       2.47420000
