19
Properties=species:S:1:pos:R:3 gdb_97294=T pbc="F F F"
C        0.03630000       1.48230000      -0.07250000
N        0.04050000       0.04520000       0.08940000
C        0.53880000      -0.64350000      -0.84520000
N        0.60260000      -2.02660000      -0.82900000
C        1.13940000      -2.95770000      -1.84750000
C        2.63400000      -2.84380000      -2.10790000
C        0.66530000      -4.12430000      -0.93470000
C        0.14450000      -3.03960000       0.02810000
O       -0.42890000      -3.01870000       1.07610000
H        0.58150000       1.94610000       0.75770000
H        0.48370000       1.82720000      -1.02010000
H       -0.99360000       1.85390000      -0.02010000
H        0.97040000      -0.21870000      -1.76550000
H        0.57800000      -2.89470000      -2.78680000
H        3.19850000      -2.92170000      -1.17340000
H        2.96090000      -3.64400000      -2.77950000
H        2.88560000      -1.88900000      -2.58080000
H       -0.11480000      -4.76680000      -1.34670000
H        1.46540000      -4.74120000      -0.51980000
