21
Properties=species:S:1:pos:R:3 gdb_100694=T pbc="F F F"
C        0.19770000       1.40520000      -0.02680000
C        0.11530000      -0.04950000      -0.01790000
C        0.02960000      -1.25190000       0.01720000
C       -0.05810000      -2.71440000       0.00080000
C       -1.52040000      -3.18660000       0.12150000
C        0.63810000      -3.24550000      -1.27820000
O        1.96120000      -2.73530000      -1.38520000
C        0.80490000      -4.76450000      -1.30350000
O        1.51270000      -5.17510000      -2.45350000
H        1.14570000       1.75440000       0.39680000
H        0.12110000       1.80400000      -1.04420000
H       -0.61170000       1.84850000       0.56330000
H        0.51050000      -3.10100000       0.85810000
H       -1.57610000      -4.27410000       0.21720000
H       -1.99200000      -2.74390000       1.00210000
H       -2.09890000      -2.88560000      -0.75740000
H        0.04150000      -2.94080000      -2.15330000
H        1.90560000      -1.77400000      -1.32410000
H        1.31790000      -5.07800000      -0.37810000
H       -0.16980000      -5.25910000      -1.33600000
H        2.27270000      -4.58330000      -2.51360000
