20
Properties=species:S:1:pos:R:3 gdb_69350=T pbc="F F F"
C        0.22220000       1.51370000       0.10460000
C       -0.02940000       0.04220000      -0.03580000
C       -0.97510000      -0.72460000       0.79380000
N        0.47350000      -0.97960000       0.97690000
C        0.93010000      -1.85810000      -0.18860000
C        0.34550000      -3.27120000      -0.22480000
C        0.41350000      -0.80520000      -1.22980000
C        2.38690000      -1.92760000      -0.16390000
C        3.58660000      -2.00110000      -0.16930000
H        1.25650000       1.76290000      -0.15530000
H       -0.43970000       2.08630000      -0.55610000
H        0.04190000       1.84080000       1.13260000
H       -1.40500000      -0.22810000       1.65870000
H       -1.61810000      -1.48040000       0.35140000
H       -0.74480000      -3.26060000      -0.29480000
H        0.73460000      -3.81300000      -1.09170000
H        0.63260000      -3.81720000       0.67820000
H       -0.37810000      -1.13720000      -1.90830000
H        1.22220000      -0.36340000      -1.81250000
H        4.64670000      -2.06160000      -0.16210000
