20
Properties=species:S:1:pos:R:3 gdb_91131=T pbc="F F F"
C        0.15830000       1.60710000      -0.19160000
C        0.05080000       0.10340000       0.01990000
C        0.82520000      -0.87440000      -0.91480000
N        1.29010000      -1.68330000       0.26340000
C        2.69390000      -1.48640000       0.77310000
C        3.60700000      -0.47140000       0.08470000
O        2.95870000       0.63050000       0.76670000
C        2.22210000      -0.27570000       1.62440000
C        0.77570000      -0.60690000       1.19210000
H        1.19980000       1.92910000      -0.22620000
H       -0.33260000       1.89630000      -1.12800000
H       -0.34040000       2.15060000       0.61890000
H       -1.00620000      -0.18110000       0.05400000
H        0.21750000      -1.46630000      -1.60590000
H        1.62130000      -0.39240000      -1.49020000
H        3.13870000      -2.40680000       1.15340000
H        4.65560000      -0.56590000       0.39770000
H        3.57190000      -0.37820000      -1.00580000
H        2.43400000      -0.09910000       2.68300000
H        0.15410000      -0.94560000       2.03000000
