19
Properties=species:S:1:pos:R:3 gdb_89619=T pbc="F F F"
C       -0.08970000       1.49290000      -0.06100000
C        0.20140000       0.00770000      -0.04900000
O        1.40560000      -0.35630000      -0.79820000
C        1.88660000      -1.12400000       0.30780000
C        2.14180000      -0.24870000       1.50350000
C        0.73470000      -0.68140000       1.21140000
C        2.46340000      -2.47790000       0.11450000
C        2.53650000      -2.97330000      -1.31310000
O        2.83900000      -3.12840000       1.06790000
H        0.72210000       2.06640000       0.39350000
H       -0.22210000       1.84160000      -1.09000000
H       -1.01360000       1.69820000       0.49000000
H       -0.64700000      -0.55200000      -0.46280000
H        2.60610000      -0.76500000       2.33610000
H        2.46820000       0.77150000       1.32760000
H        0.15600000      -1.29080000       1.89210000
H        3.12790000      -2.28070000      -1.92190000
H        2.98040000      -3.96890000      -1.33220000
H        1.53650000      -2.99210000      -1.75860000
