20
Properties=species:S:1:pos:R:3 gdb_70523=T pbc="F F F"
C       -0.35690000       1.48690000      -0.06850000
C       -0.08770000      -0.00620000      -0.03310000
C       -0.71230000      -0.81080000       1.09130000
C        0.76380000      -0.52950000       1.08860000
O        1.62580000      -1.63220000       0.91660000
C        2.56610000      -1.66160000      -0.08100000
N        2.60210000      -1.18940000      -1.24570000
C        1.54160000      -0.45220000      -1.91170000
C        0.11500000      -0.66720000      -1.38670000
H        0.41880000       2.02520000      -0.62400000
H       -1.31860000       1.69420000      -0.55180000
H       -0.39550000       1.91070000       0.93970000
H       -1.33070000      -0.30250000       1.82370000
H       -1.00680000      -1.83220000       0.87620000
H        1.15960000       0.17640000       1.81580000
H        3.39920000      -2.27350000       0.26690000
H        1.79940000       0.61590000      -1.88910000
H        1.58490000      -0.73740000      -2.97000000
H       -0.07620000      -1.74350000      -1.32540000
H       -0.60610000      -0.26280000      -2.10840000
