20
Properties=species:S:1:pos:R:3 gdb_84664=T pbc="F F F"
C       -0.11590000       1.61150000      -0.01140000
C        0.01570000       0.06710000      -0.00210000
C        0.55550000      -0.45430000      -1.31680000
C        1.81690000      -0.64500000      -1.70810000
C        3.06820000      -0.37960000      -0.96030000
N        3.20800000       0.89980000      -0.23210000
C        3.17150000      -0.36180000       0.53850000
C        2.03510000      -0.60740000       1.45690000
C        0.73160000      -0.42400000       1.23800000
H        0.87580000       2.06160000      -0.08510000
H       -0.72190000       1.94020000      -0.86270000
H       -0.59990000       1.96130000       0.90700000
H       -1.00630000      -0.32710000       0.07300000
H       -0.21720000      -0.68510000      -2.04820000
H        1.97380000      -1.04020000      -2.70960000
H        3.96020000      -0.73810000      -1.46990000
H        4.16630000       1.23290000      -0.30210000
H        4.12560000      -0.70960000       0.92920000
H        2.32860000      -0.97910000       2.43650000
H        0.06700000      -0.63610000       2.07370000
