14
Properties=species:S:1:pos:R:3 gdb_24475=T pbc="F F F"
O       -0.03310000       1.31500000       0.00960000
C        1.09100000       2.07600000       0.00280000
C        2.34150000       1.55640000      -0.01210000
C        2.48770000       0.14480000      -0.02100000
C        3.50740000      -0.78150000      -0.03580000
C        2.85040000      -2.05490000      -0.03620000
N        1.52340000      -1.99880000      -0.02310000
C        1.25760000      -0.65090000      -0.01340000
C        0.05510000      -0.02600000       0.00160000
H        0.84580000       3.12840000       0.01080000
H        3.18780000       2.23350000      -0.01660000
H        4.57250000      -0.60360000      -0.04520000
H        3.35310000      -3.01680000      -0.04620000
H       -0.91330000      -0.50830000       0.00840000
