18
Properties=species:S:1:pos:R:3 gdb_11045=T pbc="F F F"
C        0.03920000       1.53550000      -0.01830000
C        0.06460000       0.02330000       0.13570000
O        0.67690000      -0.53550000      -1.03840000
C        1.21020000      -1.80980000      -0.71930000
C        1.61800000      -1.73190000       0.74570000
O        1.85340000      -2.91290000       1.44000000
C        2.38440000      -0.51470000       1.14670000
C        0.87240000      -0.53560000       1.29590000
H        1.05540000       1.93840000      -0.04930000
H       -0.47200000       1.81350000      -0.94450000
H       -0.49270000       1.99440000       0.82080000
H       -0.97130000      -0.35000000       0.22200000
H        0.45880000      -2.61160000      -0.84310000
H        2.03860000      -2.01020000      -1.40680000
H        1.03130000      -3.41640000       1.46530000
H        2.95310000      -0.59960000       2.06540000
H        2.83460000       0.10150000       0.37500000
H        0.44170000      -0.55000000       2.29020000
