21
Properties=species:S:1:pos:R:3 gdb_113265=T pbc="F F F"
C        0.20520000       1.51740000       0.09750000
C       -0.18360000       0.04990000      -0.11790000
C        0.56600000      -0.57630000      -1.27600000
C        1.94000000      -1.19720000      -1.10020000
C        0.74810000      -2.05600000      -1.45180000
C        0.17870000      -3.07970000      -0.49960000
O        0.63160000      -2.46770000      -2.81580000
C        1.56630000      -3.32050000      -3.28260000
O        1.53160000      -3.76950000      -4.38940000
H        1.27510000       1.61420000       0.30920000
H       -0.01190000       2.11770000      -0.79250000
H       -0.34630000       1.95240000       0.93640000
H        0.00930000      -0.51270000       0.80280000
H       -1.26350000      -0.02110000      -0.30070000
H        0.43280000      -0.05850000      -2.22290000
H        2.68840000      -1.01350000      -1.86270000
H        2.33590000      -1.28630000      -0.09300000
H        0.22040000      -2.72760000       0.53320000
H       -0.86510000      -3.29360000      -0.75040000
H        0.73870000      -4.01960000      -0.55410000
H        2.35670000      -3.54100000      -2.54160000
