21
Properties=species:S:1:pos:R:3 gdb_88077=T pbc="F F F"
C       -0.07110000       1.51650000      -0.08400000
C       -0.02330000       0.01840000       0.09920000
N        1.28450000      -0.64480000      -0.10140000
C        0.65450000      -0.65040000       1.23520000
C        1.38930000       0.05490000       2.37760000
C        1.90960000      -1.09250000       3.28380000
C        0.93340000      -2.23310000       3.04690000
N       -0.48110000      -1.80510000       3.12620000
C        0.17330000      -1.95660000       1.80230000
H        0.83130000       1.98890000       0.31060000
H       -0.14820000       1.77390000      -1.14600000
H       -0.93920000       1.94260000       0.43060000
H       -0.89490000      -0.50570000      -0.29430000
H        1.15830000      -1.54590000      -0.55850000
H        2.19430000       0.68850000       2.00290000
H        0.68640000       0.67920000       2.93510000
H        2.90930000      -1.41220000       2.96790000
H        1.96980000      -0.79750000       4.33570000
H        1.19130000      -3.24390000       3.34670000
H       -1.06380000      -2.62170000       3.29510000
H       -0.16510000      -2.74100000       1.13050000
