19
Properties=species:S:1:pos:R:3 gdb_109170=T pbc="F F F"
O        0.11480000       1.35290000      -0.35990000
C       -0.04620000      -0.05250000      -0.29530000
C       -1.44940000      -0.49780000      -0.00680000
C       -2.54090000       0.26150000       0.09100000
C       -3.78130000      -0.52840000       0.42460000
C       -3.33500000      -2.00020000       0.30490000
O       -3.86750000      -2.52280000      -0.90540000
C       -1.76610000      -1.95860000       0.23390000
O       -1.24400000      -2.82880000      -0.76460000
H       -0.12940000       1.71040000       0.50020000
H        0.27530000      -0.43870000      -1.26980000
H        0.63770000      -0.50700000       0.44310000
H       -2.55110000       1.33770000      -0.04060000
H       -4.14280000      -0.30210000       1.43590000
H       -4.61430000      -0.33080000      -0.25880000
H       -3.67660000      -2.60350000       1.15570000
H       -3.53310000      -3.42380000      -0.98610000
H       -1.31950000      -2.31500000       1.17060000
H       -1.65400000      -2.54990000      -1.59350000
