20
Properties=species:S:1:pos:R:3 gdb_14341=T pbc="F F F"
C       -0.14860000       1.57180000       0.04100000
C        0.02360000       0.05000000       0.03350000
C        0.76840000      -0.48760000      -1.23790000
C        1.49530000      -1.74680000      -0.73120000
C        3.04800000      -1.99320000      -0.71150000
C        2.95730000      -2.20470000       0.84810000
C        1.62540000      -1.49770000       0.74710000
C        0.89660000      -0.47520000       1.17880000
H        0.82450000       2.07580000       0.02050000
H       -0.71900000       1.90720000      -0.83210000
H       -0.68240000       1.90990000       0.93580000
H       -0.98000000      -0.40070000       0.08280000
H        0.09050000      -0.66540000      -2.07870000
H        1.50020000       0.26550000      -1.55730000
H        0.96520000      -2.67360000      -0.98420000
H        3.43390000      -2.82850000      -1.30100000
H        3.60420000      -1.08500000      -0.95790000
H        2.86760000      -3.26790000       1.09640000
H        3.72890000      -1.76000000       1.48130000
H        0.93630000       0.00490000       2.15070000
