21
Properties=species:S:1:pos:R:3 gdb_91390=T pbc="F F F"
O        0.26800000       1.15470000      -0.79070000
C        0.05180000      -0.03700000      -0.08660000
C        0.14730000       0.00570000       1.46970000
C       -1.29770000      -0.56270000       1.58600000
C       -2.38870000       0.40750000       2.07520000
C       -2.72380000       1.30740000       0.87060000
O       -1.79340000       2.39380000       0.71930000
C       -2.55020000       0.38640000      -0.34610000
C       -1.41720000      -0.58540000       0.02160000
H       -0.28280000       1.83190000      -0.36890000
H        0.72660000      -0.77480000      -0.53030000
H        0.92930000      -0.62620000       1.89940000
H        0.27020000       1.01740000       1.86480000
H       -1.35680000      -1.52770000       2.09260000
H       -3.29190000      -0.14930000       2.35320000
H       -2.09040000       0.98880000       2.95680000
H       -3.73850000       1.72150000       0.93480000
H       -1.73740000       2.86860000       1.55450000
H       -3.48120000      -0.16620000      -0.50960000
H       -2.34100000       0.96290000      -1.25130000
H       -1.55280000      -1.56220000      -0.44770000
