16
Properties=species:S:1:pos:R:3 gdb_32484=T pbc="F F F"
C        0.12470000       1.39580000       0.14790000
N       -0.17020000       0.00370000      -0.12260000
C        0.51990000      -0.65240000      -1.11850000
C        1.21550000      -0.10820000      -2.19670000
N        1.66300000      -1.19110000      -2.90520000
C        1.25020000      -2.31980000      -2.25400000
C        1.58830000      -3.64120000      -2.77060000
O        1.27990000      -4.69800000      -2.27290000
N        0.55560000      -2.00970000      -1.16480000
H        1.18650000       1.58580000       0.37370000
H       -0.15230000       2.01390000      -0.71420000
H       -0.47630000       1.73080000       0.99570000
H       -0.31850000      -0.58140000       0.68610000
H        1.41340000       0.90390000      -2.50360000
H        2.20790000      -1.16100000      -3.75170000
H        2.18740000      -3.59550000      -3.71270000
