20
Properties=species:S:1:pos:R:3 gdb_109840=T pbc="F F F"
C        0.02380000       1.47500000      -0.43260000
C       -0.07400000       0.14150000       0.31670000
C       -1.42630000      -0.51580000       0.12130000
C       -1.71980000      -1.35030000      -1.11540000
O       -0.71710000      -1.59920000      -2.05100000
C       -1.62180000      -2.00720000       0.24070000
O       -0.44990000      -2.76810000       0.45270000
C       -0.59560000      -4.11540000       0.43940000
N        0.42510000      -4.85130000       0.50110000
H        0.99440000       1.95090000      -0.26210000
H       -0.09540000       1.31850000      -1.50870000
H       -0.75310000       2.17470000      -0.10480000
H        0.71830000      -0.52960000      -0.02370000
H        0.09840000       0.29520000       1.38870000
H       -2.26640000       0.06900000       0.49080000
H       -2.69320000      -1.26300000      -1.58900000
H       -0.05950000      -2.17090000      -1.63520000
H       -2.49960000      -2.40350000       0.74480000
H       -1.64320000      -4.43860000       0.38550000
H        0.15000000      -5.83120000       0.50570000
