20
Properties=species:S:1:pos:R:3 gdb_133807=T pbc="F F F"
C       -0.04340000       1.60500000       0.04970000
C       -0.00270000       0.07520000       0.01260000
C        0.70200000      -0.47890000      -1.23020000
C        0.74150000      -2.00950000      -1.26570000
C        1.44770000      -2.55480000      -2.51090000
C        1.48910000      -4.06710000      -2.55120000
F        0.25490000      -4.60080000      -2.55090000
F        2.11440000      -4.51110000      -3.65390000
F        2.14040000      -4.57740000      -1.49120000
H        0.96710000       2.02880000       0.04510000
H       -0.57420000       2.00880000      -0.81960000
H       -0.55200000       1.96850000       0.94790000
H        0.50310000      -0.30090000       0.91160000
H       -1.02590000      -0.32080000       0.05360000
H        0.19700000      -0.10490000      -2.13190000
H        1.72720000      -0.08520000      -1.27310000
H        1.25150000      -2.38800000      -0.37210000
H       -0.27940000      -2.40770000      -1.23170000
H        0.94540000      -2.22160000      -3.42510000
H        2.48330000      -2.20240000      -2.56140000
