17
Properties=species:S:1:pos:R:3 gdb_109483=T pbc="F F F"
C        0.03310000       1.56450000      -0.04010000
C        0.00310000       0.03790000       0.03710000
N        0.72040000      -0.48060000       1.19650000
C        2.08380000      -0.68160000       1.25770000
N        2.88060000      -0.43720000       0.30050000
C        2.31900000      -1.22710000       2.65750000
O        1.02650000      -1.27410000       3.26500000
C        0.08600000      -0.82830000       2.38240000
O       -1.08410000      -0.76470000       2.62430000
H        1.06120000       1.92710000      -0.11620000
H       -0.51600000       1.90140000      -0.92440000
H       -0.43670000       2.00730000       0.84270000
H       -1.02210000      -0.32930000       0.12030000
H        0.46940000      -0.40080000      -0.84880000
H        3.84020000      -0.66790000       0.55380000
H        2.74820000      -2.23390000       2.63280000
H        2.97430000      -0.57430000       3.24290000
