19
Properties=species:S:1:pos:R:3 gdb_41808=T pbc="F F F"
C        0.03890000       1.63280000      -0.05110000
O        1.40000000       1.98510000      -0.28800000
C        2.16840000       0.80570000      -0.62360000
C        1.11560000      -0.27080000      -0.93320000
C       -0.00000000       0.10630000       0.05460000
O        0.21600000      -0.41840000       1.35830000
C        1.18960000       0.17490000       2.20770000
C        2.63270000       0.14180000       1.75180000
C        3.07350000       0.41590000       0.52560000
H       -0.31450000       2.13160000       0.85800000
H       -0.59190000       1.96500000      -0.88890000
H        2.77250000       1.05680000      -1.50070000
H        0.74880000      -0.16480000      -1.95990000
H        1.47560000      -1.28890000      -0.78410000
H       -0.97250000      -0.29460000      -0.24280000
H        0.91910000       1.21740000       2.44220000
H        1.09620000      -0.38680000       3.14180000
H        3.35380000      -0.08860000       2.53300000
H        4.14000000       0.37430000       0.32080000
