16
Properties=species:S:1:pos:R:3 gdb_27103=T pbc="F F F"
C       -0.05700000       1.53170000       0.10640000
C       -0.06580000       0.04030000       0.01740000
C        0.01340000      -0.76700000      -1.09430000
N        0.12400000      -0.46350000      -2.45440000
C        0.19440000      -1.36950000      -3.46750000
O        0.17060000      -2.58010000      -3.32880000
N       -0.03570000      -2.06450000      -0.64630000
C       -0.14220000      -1.99690000       0.71090000
N       -0.16280000      -0.75660000       1.13910000
H        0.02600000       2.00190000      -0.87970000
H       -0.97430000       1.90530000       0.57400000
H        0.78300000       1.88660000       0.71300000
H        0.15330000       0.51480000      -2.69490000
H        0.27740000      -0.87880000      -4.45300000
H        0.00530000      -2.85690000      -1.27220000
H       -0.20010000      -2.88200000       1.32560000
