19
Properties=species:S:1:pos:R:3 gdb_93982=T pbc="F F F"
C        0.41730000       1.58680000       0.06630000
C        0.03640000       0.09770000      -0.05320000
C        0.71510000      -0.62260000      -1.23270000
C        2.08020000      -1.10480000      -0.68730000
C        1.82110000      -1.44680000       0.78300000
C        2.94860000      -1.13840000       1.75070000
O        4.01700000      -0.68960000       1.42460000
C        0.55010000      -0.65050000       1.18050000
O        0.07410000      -0.62490000       2.28510000
H        1.50320000       1.72500000       0.10030000
H        0.03610000       2.14310000      -0.79510000
H       -0.00770000       2.01940000       0.97590000
H       -1.05430000       0.01750000      -0.07770000
H        0.10990000      -1.48440000      -1.53640000
H        0.82330000       0.02040000      -2.11030000
H        2.47770000      -1.95040000      -1.25240000
H        2.83130000      -0.31090000      -0.73640000
H        1.55890000      -2.50370000       0.93680000
H        2.69850000      -1.34120000       2.81240000
