21
Properties=species:S:1:pos:R:3 gdb_107332=T pbc="F F F"
C       -0.35500000       1.26980000      -0.08930000
O        0.26260000       0.00730000       0.07820000
C        0.79100000      -0.54480000      -1.08640000
C       -0.15880000      -1.18190000      -2.07080000
C        0.77130000      -2.04720000      -1.22360000
C        2.07720000      -2.40380000      -1.84740000
C        2.82600000      -1.32040000      -2.06490000
C        2.15790000      -0.04150000      -1.59140000
C        2.11960000       1.05480000      -2.66850000
H        0.37370000       2.06250000      -0.30840000
H       -1.10270000       1.25100000      -0.89460000
H       -0.85220000       1.50770000       0.85440000
H       -1.20460000      -1.18030000      -1.78130000
H        0.02700000      -1.11500000      -3.13780000
H        0.32580000      -2.66880000      -0.45530000
H        2.35150000      -3.42130000      -2.10230000
H        3.79880000      -1.31260000      -2.54510000
H        2.69830000       0.35680000      -0.71930000
H        1.54720000       0.73080000      -3.54320000
H        1.66670000       1.97580000      -2.29000000
H        3.13230000       1.29920000      -3.00670000
