19
Properties=species:S:1:pos:R:3 gdb_77823=T pbc="F F F"
C       -0.00690000       1.51400000      -0.12820000
C        0.04910000       0.01750000       0.06330000
N        1.30830000      -0.77290000      -0.12170000
C        2.47880000       0.02650000      -0.07930000
N        3.24370000       0.20030000      -1.06490000
O        2.67190000       0.57590000       1.16960000
C        1.64930000       0.13890000       2.06850000
C        0.68450000      -0.67640000       1.21540000
C        0.09430000      -1.92560000       1.81940000
H        0.79990000       2.04160000       0.38410000
H        0.05310000       1.76150000      -1.19260000
H       -0.96080000       1.89460000       0.25150000
H       -0.78890000      -0.50780000      -0.39090000
H        4.02450000       0.79960000      -0.79770000
H        2.09880000      -0.48480000       2.84970000
H        1.19600000       1.01700000       2.54130000
H       -0.56900000      -1.67660000       2.65540000
H       -0.48610000      -2.47580000       1.07520000
H        0.88190000      -2.58750000       2.19500000
