17
Properties=species:S:1:pos:R:3 gdb_69009=T pbc="F F F"
O       -0.10640000       1.42100000       0.02550000
C       -0.06830000       0.04670000       0.02590000
C       -0.21590000      -0.72400000      -1.25560000
C       -1.13840000      -1.03310000      -0.09880000
O       -0.46020000      -1.87640000       0.84070000
C        0.53500000      -0.84860000       1.10350000
C       -2.61330000      -1.03000000      -0.11470000
C       -3.38350000      -2.06080000       0.59610000
O       -3.26720000      -0.74220000       1.13060000
H       -0.55780000       1.71430000       0.82600000
H       -0.66480000      -0.13600000      -2.05070000
H        0.51890000      -1.46050000      -1.57070000
H        1.55910000      -1.21120000       0.96150000
H        0.41530000      -0.44770000       2.11770000
H       -3.06210000      -0.54380000      -0.98020000
H       -4.37210000      -2.33740000       0.23190000
H       -2.84280000      -2.83010000       1.14230000
