22
Properties=species:S:1:pos:R:3 gdb_110639=T pbc="F F F"
C        0.80590000       1.53330000      -0.22920000
C        0.00210000       0.23280000      -0.15670000
N        0.44690000      -0.56660000       0.98650000
C       -0.27030000      -1.29730000       1.99340000
C       -1.34240000      -2.33020000       1.50240000
C       -1.54250000      -2.38640000       0.01470000
C       -0.29650000      -2.98240000       0.61170000
C        0.77820000      -1.95350000       1.13280000
C        2.18490000      -2.38800000       1.42310000
H        1.87350000       1.32060000      -0.33920000
H        0.48450000       2.14270000      -1.08110000
H        0.67360000       2.11880000       0.68540000
H       -1.06450000       0.46820000      -0.06150000
H        0.13490000      -0.32950000      -1.08900000
H       -0.21750000      -0.96830000       3.02740000
H       -2.01450000      -2.81960000       2.19560000
H       -2.26900000      -3.13210000      -0.29860000
H       -1.53740000      -1.50880000      -0.61360000
H       -0.07020000      -4.03800000       0.52780000
H        2.74460000      -2.55570000       0.49410000
H        2.70590000      -1.62050000       2.00120000
H        2.19820000      -3.32660000       1.98840000
