15
Properties=species:S:1:pos:R:3 gdb_98818=T pbc="F F F"
C       -0.40600000       1.39850000      -0.18480000
O       -0.34330000      -0.03020000      -0.31960000
C        0.65660000      -0.49230000      -1.08660000
O        1.45230000       0.18490000      -1.67900000
C        0.66850000      -2.01340000      -1.04510000
O        1.44040000      -2.60220000      -2.09440000
C        2.46690000      -3.11100000      -1.21640000
C        1.67460000      -2.59670000      -0.01160000
O        1.76440000      -2.63220000       1.17230000
H        0.51900000       1.78200000       0.25230000
H       -0.55870000       1.86680000      -1.16000000
H       -1.25170000       1.59590000       0.47300000
H       -0.35070000      -2.40780000      -0.97290000
H        2.58800000      -4.19880000      -1.27910000
H        3.43540000      -2.61820000      -1.36730000
