19
Properties=species:S:1:pos:R:3 gdb_91398=T pbc="F F F"
O        0.31830000       1.19680000      -0.47090000
C        0.02010000      -0.11140000       0.01560000
C        0.73190000      -0.39570000       1.36990000
C       -0.21710000      -0.27180000       2.58540000
C       -1.30960000       0.81760000       2.33650000
C       -2.09130000      -0.24760000       1.50190000
C       -1.51380000      -0.36670000       0.07160000
C       -1.35610000      -1.27870000       2.37020000
O       -1.60620000      -2.37580000       2.77830000
H       -0.03050000       1.84510000       0.14760000
H        0.45320000      -0.76280000      -0.74800000
H        1.16420000      -1.40260000       1.36610000
H        1.56650000       0.30680000       1.45760000
H        0.32090000      -0.29150000       3.53470000
H       -1.83760000       1.08030000       3.25560000
H       -1.00840000       1.74050000       1.83590000
H       -3.18260000      -0.24630000       1.50930000
H       -1.99260000       0.35280000      -0.59990000
H       -1.74560000      -1.36510000      -0.31620000
