13
Properties=species:S:1:pos:R:3 gdb_125389=T pbc="F F F"
C       -0.00970000       1.38350000       0.19080000
C       -0.00650000      -0.09920000       0.02400000
C       -0.03930000      -0.82570000      -1.10620000
O       -0.02540000      -2.18910000      -0.89860000
C        0.02150000      -2.43950000       0.46660000
C        0.03400000      -1.10200000       1.07780000
N        0.07580000      -0.92480000       2.36560000
N        0.10920000      -0.79600000       3.49090000
O        0.04350000      -3.54080000       0.93580000
H        0.88860000       1.73290000       0.71310000
H       -0.04440000       1.87700000      -0.78350000
H       -0.87560000       1.72290000       0.77100000
H       -0.07510000      -0.51770000      -2.13920000
