18
Properties=species:S:1:pos:R:3 gdb_119813=T pbc="F F F"
C       -0.13330000       1.50220000       0.01280000
C       -0.00210000      -0.00750000       0.00360000
O       -1.33660000      -0.55960000       0.01030000
C       -1.40320000      -1.88710000       0.00500000
N       -0.43840000      -2.72200000      -0.00530000
C       -1.07320000      -4.04610000      -0.00670000
C       -2.58650000      -3.81230000       0.00460000
N       -3.48560000      -4.70760000       0.00660000
N       -2.68620000      -2.42150000       0.01150000
H        0.86130000       1.95740000       0.00780000
H       -0.67730000       1.85340000      -0.86850000
H       -0.66400000       1.84380000       0.90590000
H        0.52220000      -0.37300000      -0.88470000
H        0.53500000      -0.38270000       0.88020000
H       -0.78150000      -4.62290000      -0.89130000
H       -0.76950000      -4.63050000       0.86880000
H       -4.42520000      -4.30740000       0.01480000
H       -3.53420000      -1.88070000       0.01930000
