15
Properties=species:S:1:pos:R:3 gdb_46629=T pbc="F F F"
O       -0.02220000      -0.03670000       0.00250000
C        0.00470000       1.16900000       0.00900000
C       -1.19550000       2.13620000       0.03180000
O       -0.64160000       3.47020000       0.03130000
C        0.69350000       3.35570000       0.01130000
N        1.59480000       4.24050000       0.00320000
C        2.87100000       3.49360000      -0.01930000
C        2.52910000       1.95190000      -0.02330000
N        1.07580000       2.01570000      -0.00170000
H       -1.82640000       2.00330000      -0.85130000
H       -1.80060000       1.99330000       0.93120000
H        3.44700000       3.77360000      -0.90650000
H        3.47210000       3.76350000       0.85420000
H        2.88520000       1.43480000      -0.91810000
H        2.91110000       1.42450000       0.85470000
