22
Properties=species:S:1:pos:R:3 gdb_7491=T pbc="F F F"
C       -0.02230000       1.61570000       0.05820000
C        0.02290000       0.08530000       0.03570000
C        0.48890000      -0.47230000      -1.31480000
C        0.71990000      -1.98570000      -1.33180000
C       -0.53830000      -2.80030000      -1.06050000
C        1.58690000      -2.48640000      -2.51930000
C        2.64420000      -2.79610000      -1.44420000
O        1.77550000      -2.35010000      -0.38590000
H        0.96620000       2.04440000      -0.14130000
H       -0.70960000       2.00590000      -0.70130000
H       -0.35630000       1.98960000       1.03130000
H        0.70370000      -0.27990000       0.81290000
H       -0.97090000      -0.30730000       0.28110000
H       -0.23410000      -0.21640000      -2.10230000
H        1.43300000       0.01520000      -1.59070000
H       -1.31530000      -2.57260000      -1.79890000
H       -0.31720000      -3.87030000      -1.11070000
H       -0.93650000      -2.58660000      -0.06480000
H        1.18640000      -3.35660000      -3.04290000
H        1.86040000      -1.72220000      -3.24920000
H        2.91850000      -3.85220000      -1.33110000
H        3.56460000      -2.20110000      -1.49910000
