16
Properties=species:S:1:pos:R:3 gdb_67491=T pbc="F F F"
C        0.00660000       1.52620000       0.01020000
C       -0.01850000       0.02670000       0.04080000
C       -1.35430000      -0.79040000       0.12880000
O       -1.11710000      -2.15390000      -0.22380000
C       -0.76150000      -1.71520000       1.08920000
C        0.59900000      -0.95930000       1.02840000
C        1.14920000      -0.84370000      -0.38230000
C        1.18620000      -1.86010000      -1.40540000
N        1.34060000      -2.62110000      -2.26260000
H        1.01040000       1.91100000       0.21420000
H       -0.30730000       1.90640000      -0.96860000
H       -0.67010000       1.94430000       0.76400000
H       -2.35640000      -0.39680000       0.01020000
H       -1.17130000      -2.25130000       1.93540000
H        1.22270000      -0.75890000       1.89000000
H        2.07220000      -0.26620000      -0.38490000
