12
Properties=species:S:1:pos:R:3 gdb_2138=T pbc="F F F"
C       -0.04650000       1.56250000      -0.00950000
C        0.03860000       0.03390000      -0.02720000
N        0.83700000      -0.48480000      -1.14400000
C        1.74850000      -1.18160000      -0.61000000
O        1.78570000      -1.29410000       0.75970000
C        0.71200000      -0.52890000       1.22440000
O        0.46870000      -0.40220000       2.38160000
H        0.95240000       2.00570000       0.02450000
H       -0.55110000       1.91600000      -0.91100000
H       -0.60520000       1.88990000       0.87080000
H       -0.97450000      -0.38290000      -0.08990000
H        2.53320000      -1.72250000      -1.12490000
