16
Properties=species:S:1:pos:R:3 gdb_124297=T pbc="F F F"
C       -1.06730000       0.69550000       0.58870000
C        0.23270000       0.06730000       0.13460000
O        1.31180000       0.40690000       0.55080000
C        0.12040000      -1.05340000      -0.92540000
C       -0.41480000      -2.31640000      -0.33910000
C        0.17360000      -3.42000000       0.19970000
C       -0.92760000      -4.21770000       0.60730000
N       -2.07920000      -3.65170000       0.34430000
O       -1.75530000      -2.43700000      -0.26060000
H       -0.88550000       1.35370000       1.43870000
H       -1.49210000       1.27970000      -0.23700000
H       -1.80600000      -0.07000000       0.84350000
H       -0.53910000      -0.72610000      -1.73660000
H        1.12180000      -1.22720000      -1.32160000
H        1.22610000      -3.62940000       0.28980000
H       -0.91990000      -5.18840000       1.08300000
