14
Properties=species:S:1:pos:R:3 gdb_43328=T pbc="F F F"
O       -0.00810000      -0.03160000      -0.48160000
C       -0.03820000       1.13200000      -0.15820000
C       -1.28540000       1.86130000       0.15930000
C       -1.30440000       3.19770000       0.27870000
C       -0.09780000       4.00390000       0.01030000
C        1.00460000       4.23490000       1.01420000
N        1.17040000       3.31450000      -0.10490000
C        1.25680000       1.93010000       0.12040000
O        2.24390000       1.39730000       0.55480000
H       -2.17730000       1.25470000       0.28210000
H       -2.22990000       3.72980000       0.48430000
H       -0.24260000       4.79720000      -0.72420000
H        1.57670000       5.15670000       0.96860000
H        0.90050000       3.79350000       2.00160000
