19
Properties=species:S:1:pos:R:3 gdb_91451=T pbc="F F F"
C       -0.06600000       1.52230000      -0.03110000
C        0.07780000       0.01300000       0.06240000
O        0.95470000      -0.48390000      -0.99370000
C        1.92090000      -1.26320000      -0.27670000
C        2.29060000      -0.34940000       0.92310000
C        0.78010000      -0.56660000       1.31800000
C        0.19510000      -0.30940000       2.68200000
C        1.04370000      -1.99380000       0.76600000
O        0.80870000      -3.10840000       1.12100000
H        0.87470000       2.03860000       0.17760000
H       -0.38430000       1.79520000      -1.04170000
H       -0.82500000       1.87930000       0.67270000
H       -0.91170000      -0.45040000      -0.05910000
H        2.63150000      -1.72810000      -0.95460000
H        2.98460000      -0.80580000       1.63220000
H        2.59930000       0.66350000       0.66100000
H        0.21550000       0.75520000       2.93610000
H       -0.84660000      -0.64540000       2.72390000
H        0.74870000      -0.85380000       3.45270000
