21
Properties=species:S:1:pos:R:3 gdb_72467=T pbc="F F F"
C       -0.01400000       1.50290000       0.05140000
C        0.00720000      -0.01250000      -0.03090000
C        0.75830000      -0.60740000      -1.23280000
C        0.87330000      -2.05910000      -0.73860000
C        1.22350000      -1.82650000       0.75370000
O        0.78590000      -0.50380000       1.08170000
C       -0.49290000      -2.75350000      -0.89860000
C       -1.60650000      -1.87650000      -0.37730000
C       -1.38980000      -0.62350000       0.02150000
H        1.00420000       1.90030000       0.02830000
H       -0.57770000       1.92560000      -0.78610000
H       -0.48840000       1.82810000       0.98270000
H        0.21710000      -0.51040000      -2.17730000
H        1.74030000      -0.13370000      -1.33220000
H        1.65270000      -2.63160000      -1.24770000
H        0.73260000      -2.56210000       1.40490000
H        2.30410000      -1.88140000       0.93380000
H       -0.67350000      -3.00290000      -1.95500000
H       -0.49540000      -3.71380000      -0.36510000
H       -2.60360000      -2.30790000      -0.32840000
H       -2.19570000      -0.01520000       0.42370000
