19
Properties=species:S:1:pos:R:3 gdb_35774=T pbc="F F F"
C        0.05820000      -1.20180000      -0.04370000
C        0.04860000      -0.00140000      -0.00640000
C       -0.01320000       1.45540000       0.05540000
C       -0.83390000       1.95320000       1.25750000
C       -0.96790000       3.48320000       1.19450000
C        0.32580000       4.16790000       0.78510000
C        1.62770000       3.97830000       1.53330000
C        1.43550000       3.34410000       0.17980000
O        1.32610000       1.94690000       0.13870000
H        0.07790000      -2.26280000      -0.08530000
H       -0.48440000       1.82790000      -0.87070000
H       -1.82190000       1.48370000       1.25450000
H       -0.32050000       1.62730000       2.16830000
H       -1.73310000       3.73080000       0.44760000
H       -1.33140000       3.87430000       2.15180000
H        0.18700000       5.15190000       0.34650000
H        2.29450000       4.82820000       1.62840000
H        1.64210000       3.29240000       2.37340000
H        1.98420000       3.74100000      -0.67140000
