16
Properties=species:S:1:pos:R:3 gdb_42705=T pbc="F F F"
O        0.01940000       0.07640000       0.32340000
C       -0.05950000       1.24020000       0.07690000
C       -1.15310000       2.27970000      -0.08440000
C       -1.05250000       3.19020000       1.23750000
C        0.04190000       2.68690000       2.21160000
C        1.08200000       3.10450000       1.14720000
C        0.02900000       4.08690000       0.53220000
C       -0.04170000       3.18450000      -0.70530000
N        0.99520000       2.23340000      -0.12690000
H       -2.14610000       2.06090000      -0.47540000
H       -2.00400000       3.55920000       1.61360000
H        0.11820000       3.36480000       3.06800000
H        0.01930000       1.65250000       2.56440000
H        2.10670000       3.34620000       1.42480000
H        0.06770000       5.17170000       0.58020000
H        0.04410000       3.45570000      -1.75580000
