21
Properties=species:S:1:pos:R:3 gdb_88972=T pbc="F F F"
O       -0.21450000       1.39810000       0.39280000
C       -0.12310000       0.01320000       0.21560000
C       -0.82790000      -0.90610000       1.18100000
C       -1.36870000      -0.69920000      -0.22570000
C       -2.65990000       0.06170000      -0.46410000
C       -3.90220000      -0.74620000      -0.13390000
O       -3.97530000      -1.99420000      -0.78140000
C       -4.54480000      -0.64610000       1.22940000
C       -5.22370000      -0.05870000       0.00450000
H        0.30980000       1.63260000       1.16520000
H        0.82220000      -0.32520000      -0.20870000
H       -0.36600000      -1.85230000       1.44260000
H       -1.37420000      -0.42880000       1.98790000
H       -1.20100000      -1.51840000      -0.91970000
H       -2.65270000       0.98600000       0.12030000
H       -2.70290000       0.35590000      -1.52080000
H       -3.33600000      -2.57590000      -0.35580000
H       -4.97110000      -1.55410000       1.64140000
H       -4.12360000       0.03420000       1.96190000
H       -5.25800000       1.02030000      -0.10110000
H       -6.08640000      -0.58570000      -0.38570000
