19
Properties=species:S:1:pos:R:3 gdb_93707=T pbc="F F F"
C        0.20960000       1.58830000       0.13930000
C        0.04350000       0.08370000      -0.01650000
C        0.75000000      -0.51320000      -1.24440000
C        1.20770000      -1.90460000      -0.75740000
N        2.38730000      -2.38230000      -1.47800000
C        1.54130000      -1.56550000       0.71570000
O        0.60160000      -0.59540000       1.12520000
C        0.08450000      -2.86600000      -0.82210000
N       -0.76470000      -3.64670000      -0.90830000
H        1.26960000       1.85880000       0.17790000
H       -0.25450000       2.11590000      -0.70070000
H       -0.26680000       1.92850000       1.06250000
H       -1.02680000      -0.16240000      -0.04620000
H        0.10580000      -0.55340000      -2.12510000
H        1.65400000       0.05110000      -1.49460000
H        2.67420000      -3.28770000      -1.11440000
H        2.15590000      -2.53520000      -2.45590000
H        1.47200000      -2.42890000       1.38450000
H        2.57160000      -1.18030000       0.73510000
