16
Properties=species:S:1:pos:R:3 gdb_123337=T pbc="F F F"
C        0.02390000      -1.23430000      -0.13530000
C       -0.02180000      -0.03350000      -0.11740000
C       -0.03850000       1.42240000      -0.08670000
C        1.37220000       2.01920000       0.15750000
C        1.36140000       3.50890000       0.19550000
C        1.65090000       4.42840000       1.15690000
C        1.41450000       5.67140000       0.51220000
N        1.01560000       5.52140000      -0.72590000
O        0.98100000       4.14290000      -0.93100000
H        0.04690000      -2.29560000      -0.15710000
H       -0.43210000       1.81450000      -1.03100000
H       -0.71830000       1.77150000       0.69990000
H        1.77200000       1.64500000       1.10310000
H        2.04280000       1.67370000      -0.63680000
H        1.98290000       4.24780000       2.16550000
H        1.52230000       6.67130000       0.90890000
