19
Properties=species:S:1:pos:R:3 gdb_6886=T pbc="F F F"
C        0.07020000       1.37340000      -0.31630000
C       -0.04530000      -0.09830000       0.00660000
N        1.05520000      -1.01290000      -0.22190000
C        2.25180000      -0.75480000      -0.84510000
O        2.38250000      -0.13180000      -1.87450000
C        0.65610000      -0.79000000       1.16310000
C        1.58100000      -0.01940000       2.08570000
C       -0.04380000      -1.96280000       1.82410000
H        1.01980000       1.80360000       0.00570000
H       -0.00360000       1.52560000      -1.39630000
H       -0.74310000       1.92410000       0.16760000
H       -1.01210000      -0.52460000      -0.26400000
H        3.09790000      -1.25710000      -0.33500000
H        2.09730000       0.79670000       1.57690000
H        1.01450000       0.40160000       2.92300000
H        2.34150000      -0.68530000       2.50790000
H        0.68580000      -2.67570000       2.22390000
H       -0.66690000      -1.61940000       2.65690000
H       -0.67780000      -2.49220000       1.10900000
