17
Properties=species:S:1:pos:R:3 gdb_40453=T pbc="F F F"
C       -0.53420000       0.82850000      -0.61200000
O        0.12630000       1.65350000       0.35050000
C        0.43690000       0.25570000       0.32550000
C        0.00290000      -0.53240000       1.51340000
C        0.78690000      -0.47990000       2.81330000
O        0.34070000      -1.58930000       3.58410000
C       -0.19240000      -2.58990000       2.72570000
C       -0.61880000      -1.86250000       1.47040000
O       -1.40170000      -0.69430000       1.74200000
H       -1.59280000       0.66250000      -0.43050000
H       -0.24220000       0.99280000      -1.64810000
H        1.44450000       0.03160000      -0.02840000
H        1.86570000      -0.54230000       2.59420000
H        0.59890000       0.43090000       3.38940000
H        0.55830000      -3.35540000       2.46740000
H       -1.02010000      -3.07640000       3.25180000
H       -0.84340000      -2.39590000       0.55080000
