23
Properties=species:S:1:pos:R:3 gdb_92699=T pbc="F F F"
C       -0.04080000       1.50540000       0.10430000
C        0.03600000      -0.00840000      -0.02220000
C        0.80640000      -0.48310000      -1.25740000
C        1.09030000      -1.95630000      -1.15110000
C        1.00720000      -2.62980000      -0.00230000
C        1.20500000      -4.11980000       0.07770000
C        0.65900000      -1.90700000       1.28800000
C        1.61350000      -2.22330000       2.44050000
O        0.67540000      -0.49440000       1.15070000
H        0.96430000       1.92970000       0.19330000
H       -0.52560000       1.94150000      -0.77460000
H       -0.61070000       1.78790000       0.99360000
H       -0.98610000      -0.42370000      -0.07240000
H        0.22170000      -0.27460000      -2.16290000
H        1.73920000       0.09120000      -1.35530000
H        1.34890000      -2.48700000      -2.06530000
H        1.32350000      -4.55290000      -0.91910000
H        2.08890000      -4.38670000       0.66880000
H        0.34810000      -4.61020000       0.55820000
H       -0.35910000      -2.22760000       1.58720000
H        2.64370000      -1.98680000       2.15820000
H        1.34460000      -1.61440000       3.30740000
H        1.55820000      -3.27650000       2.72640000
