19
Properties=species:S:1:pos:R:3 gdb_38758=T pbc="F F F"
C       -0.05380000       1.52760000      -0.09040000
C        1.49350000       1.54780000       0.05590000
C        1.98960000       1.79830000       1.48030000
O        1.43270000       0.89840000       2.44120000
C        1.15530000      -0.40530000       1.96990000
C        2.12240000      -0.82180000       0.85480000
C        1.52120000       0.01100000      -0.27360000
C       -0.01190000      -0.01480000       0.01690000
O       -0.12470000      -0.48250000       1.36050000
H       -0.64340000       2.04050000       0.67310000
H       -0.37450000       1.85740000      -1.08280000
H        2.03330000       2.20360000      -0.63250000
H        3.08820000       1.73120000       1.50250000
H        1.71690000       2.80450000       1.81610000
H        1.12320000      -1.04530000       2.85280000
H        3.16380000      -0.58520000       1.08590000
H        2.03840000      -1.89430000       0.65860000
H        1.83480000      -0.24630000      -1.28450000
H       -0.69200000      -0.59980000      -0.60560000
