21
Properties=species:S:1:pos:R:3 gdb_115354=T pbc="F F F"
C       -0.05950000       1.16400000      -0.70690000
O       -0.16930000      -0.24190000      -0.60570000
C       -1.23000000      -0.66460000       0.20300000
O       -2.49380000      -0.31250000      -0.32570000
C       -2.99230000      -1.37400000      -1.14440000
C       -2.04630000      -2.58330000      -0.97510000
O       -1.15710000      -2.75030000      -2.06800000
C       -1.23780000      -2.19770000       0.27980000
C        0.12560000      -2.86670000       0.42280000
H        0.81050000       1.37370000      -1.33300000
H       -0.95300000       1.60580000      -1.16370000
H        0.09170000       1.62600000       0.28150000
H       -1.16510000      -0.17210000       1.18560000
H       -4.01450000      -1.59990000      -0.81720000
H       -3.02420000      -1.06190000      -2.19620000
H       -2.61630000      -3.50800000      -0.80700000
H       -1.67610000      -2.98870000      -2.84180000
H       -1.86560000      -2.44720000       1.14380000
H        0.75950000      -2.63300000      -0.43150000
H        0.62780000      -2.52330000       1.33280000
H        0.01710000      -3.95370000       0.48820000
