23
Properties=species:S:1:pos:R:3 gdb_86546=T pbc="F F F"
C       -0.55920000       1.29930000       0.10790000
C        0.11510000      -0.03670000      -0.14070000
C        1.06460000      -0.14680000      -1.35340000
C        2.17590000      -0.36440000      -0.29800000
O        1.20830000      -0.28260000       0.78070000
C        2.95650000      -1.65700000      -0.29540000
C        2.13970000      -2.93400000      -0.26650000
C        4.26330000      -1.64410000      -1.05740000
C        4.27190000      -1.64240000       0.45060000
H        0.15870000       2.12130000       0.02090000
H       -1.36530000       1.46330000      -0.61630000
H       -0.99150000       1.32750000       1.11300000
H       -0.62350000      -0.84720000      -0.07620000
H        0.88000000      -0.99020000      -2.02020000
H        1.16290000       0.76370000      -1.94790000
H        2.88380000       0.47460000      -0.23930000
H        1.52580000      -3.04880000      -1.16730000
H        2.79110000      -3.81060000      -0.20300000
H        1.47390000      -2.93990000       0.60160000
H        4.55440000      -2.55300000      -1.57320000
H        4.55320000      -0.73290000      -1.57120000
H        4.56280000      -0.72950000       0.95950000
H        4.57240000      -2.55020000       0.96250000
