23
Properties=species:S:1:pos:R:3 gdb_119008=T pbc="F F F"
C       -0.19270000       1.31610000      -0.30110000
O       -0.05250000      -0.06060000      -0.04740000
C       -1.28360000      -0.75180000      -0.04470000
C       -1.03060000      -2.24430000       0.20500000
C       -0.30270000      -2.45490000       1.53580000
C       -2.38710000      -3.00500000       0.11080000
C       -2.32780000      -3.72310000      -1.25920000
O       -1.25050000      -3.13030000      -1.97110000
C       -0.26210000      -2.83610000      -0.99870000
H        0.80770000       1.75580000      -0.29120000
H       -0.65550000       1.50560000      -1.28240000
H       -0.80640000       1.81270000       0.46740000
H       -1.94680000      -0.34730000       0.74010000
H       -1.79640000      -0.62300000      -1.01240000
H       -0.89620000      -2.07040000       2.37270000
H       -0.11860000      -3.51920000       1.71640000
H        0.65640000      -1.93080000       1.54160000
H       -2.50090000      -3.71790000       0.93160000
H       -3.23270000      -2.31210000       0.16570000
H       -2.14620000      -4.80120000      -1.12190000
H       -3.23290000      -3.60520000      -1.86050000
H        0.45240000      -2.13420000      -1.43270000
H        0.27510000      -3.75140000      -0.69700000
