18
Properties=species:S:1:pos:R:3 gdb_47753=T pbc="F F F"
N        0.04130000       1.35380000      -0.10290000
C        0.03520000       0.10190000       0.06010000
O        1.19360000      -0.62720000       0.08100000
C        1.29150000      -1.76450000       0.95330000
C        0.08620000      -2.68640000       0.85240000
C       -1.18840000      -1.87940000       1.09470000
C       -1.26160000      -0.70690000       0.08580000
C       -2.44620000       0.11260000       0.30260000
C       -3.46390000       0.71540000       0.50920000
H        1.00670000       1.68980000      -0.13660000
H        2.21750000      -2.26600000       0.66250000
H        1.40870000      -1.40490000       1.98580000
H        0.05760000      -3.14960000      -0.14150000
H        0.18780000      -3.49310000       1.58630000
H       -2.08390000      -2.49720000       0.98930000
H       -1.19480000      -1.47580000       2.11410000
H       -1.33000000      -1.15650000      -0.91770000
H       -4.34600000       1.28120000       0.67940000
