15
Properties=species:S:1:pos:R:3 gdb_48927=T pbc="F F F"
O        0.03220000      -0.01420000       0.25360000
C        0.11390000       1.12810000      -0.12730000
C        1.36930000       1.91830000      -0.08420000
N        2.66070000       1.26580000       0.26540000
C        3.06480000       2.62950000       0.72560000
C        2.98690000       3.51690000      -0.53810000
C        1.72210000       3.00730000      -1.12770000
N        1.68280000       4.17400000      -0.18210000
C        1.59880000       3.12120000       0.92230000
H       -0.77370000       1.68440000      -0.50160000
H        2.49550000       0.66040000       1.07050000
H        3.88690000       2.73120000       1.43030000
H        3.76570000       4.03010000      -1.08590000
H        1.42920000       3.08600000      -2.16630000
H        1.05890000       3.30720000       1.84930000
