19
Properties=species:S:1:pos:R:3 gdb_39624=T pbc="F F F"
C        0.03100000       1.50390000      -0.13230000
O        1.37660000       1.52620000       0.39990000
C        1.42220000       0.08280000       0.48500000
C        0.02070000      -0.00600000      -0.07580000
C       -0.82880000      -0.97050000      -0.38250000
C       -2.22050000      -0.81640000      -0.96090000
C       -2.49880000      -2.23840000      -1.47480000
O       -1.80640000      -3.09620000      -0.57750000
C       -0.57730000      -2.46320000      -0.24920000
H       -0.68180000       2.02110000       0.52570000
H       -0.02660000       1.95480000      -1.13360000
H        2.22430000      -0.34350000      -0.13480000
H        1.55640000      -0.26690000       1.51890000
H       -2.93940000      -0.55040000      -0.17610000
H       -2.28100000      -0.05350000      -1.74240000
H       -3.55430000      -2.52010000      -1.45970000
H       -2.11950000      -2.35860000      -2.50290000
H        0.22600000      -2.78670000      -0.93350000
H       -0.29650000      -2.77120000       0.76400000
