19
Properties=species:S:1:pos:R:3 gdb_121667=T pbc="F F F"
O       -0.35080000       1.47530000       0.25470000
C       -0.23490000       0.06880000       0.06730000
C       -1.64670000      -0.50130000       0.10060000
N       -2.48020000       0.08060000      -0.93230000
C       -2.91680000      -0.64110000      -2.00550000
O       -2.78220000      -1.84340000      -2.13090000
N       -3.52310000       0.18620000      -2.98680000
C       -4.56820000      -0.39680000      -3.80580000
C       -4.90260000       0.64270000      -2.78990000
H        0.50440000       1.87860000       0.08210000
H        0.23400000      -0.16710000      -0.89900000
H        0.36760000      -0.39430000       0.86400000
H       -1.62720000      -1.58020000      -0.06480000
H       -2.08430000      -0.30650000       1.08780000
H       -2.45640000       1.08470000      -1.01890000
H       -4.53290000      -0.13500000      -4.85910000
H       -4.83600000      -1.42630000      -3.58780000
H       -5.41470000       0.31630000      -1.88810000
H       -5.10660000       1.66700000      -3.08920000
