15
Properties=species:S:1:pos:R:3 gdb_6751=T pbc="F F F"
C       -0.14620000       1.71160000       0.04130000
N       -0.09290000       0.25420000       0.04100000
H       -1.02230000      -0.12400000       0.19150000
H        0.12260000      -4.30320000      -0.57490000
C        0.80160000      -0.26590000       1.07300000
C        0.82400000      -1.72320000       1.09350000
C        0.83750000      -2.92840000       1.12980000
C        0.86640000      -4.37600000       1.17970000
O        1.27320000      -5.01880000       2.10690000
O        0.38220000      -4.97830000       0.06540000
H        0.83300000       2.11180000      -0.24480000
H       -0.87340000       2.04660000      -0.70270000
H       -0.41660000       2.15550000       1.01600000
H        1.81740000       0.09600000       0.85980000
H        0.56170000       0.09790000       2.09110000
