17
Properties=species:S:1:pos:R:3 gdb_31177=T pbc="F F F"
C       -0.02810000       1.43250000       0.15850000
N       -0.03070000       0.02990000      -0.21610000
C       -1.16890000      -0.73250000      -0.07900000
C       -1.33150000      -2.12410000      -0.01860000
C       -0.28190000      -3.10930000      -0.01810000
O       -0.43640000      -4.31540000       0.03600000
C       -2.74760000      -2.36960000       0.05360000
C       -3.38330000      -1.16990000       0.03990000
N       -2.40850000      -0.17060000      -0.03580000
H        0.98810000       1.81920000       0.06390000
H       -0.65640000       2.01550000      -0.52580000
H       -0.37540000       1.61240000       1.18760000
H        0.81440000      -0.47020000       0.00940000
H        0.75420000      -2.68750000      -0.07190000
H       -3.19830000      -3.34700000       0.11220000
H       -4.42670000      -0.90540000       0.08290000
H       -2.59790000       0.81470000      -0.08320000
