21
Properties=species:S:1:pos:R:3 gdb_101910=T pbc="F F F"
C       -0.53340000       1.34190000      -0.02690000
C       -0.09610000      -0.10800000       0.01330000
O        0.13140000      -0.68570000       1.05300000
C        0.08180000      -0.82320000      -1.32980000
C        1.59920000      -1.03540000      -1.55590000
O        1.89550000      -1.59180000      -2.82040000
C       -0.67360000      -2.14110000      -1.32390000
C       -2.12010000      -2.20270000      -1.74150000
C       -1.06190000      -2.82360000      -2.61840000
H        0.13520000       1.92590000      -0.67000000
H       -1.53410000       1.41300000      -0.47000000
H       -0.54630000       1.76230000       0.97940000
H       -0.29160000      -0.18940000      -2.14310000
H        2.12080000      -0.07240000      -1.52300000
H        1.99060000      -1.64940000      -0.73170000
H        1.47710000      -2.45780000      -2.85650000
H       -0.39220000      -2.78630000      -0.49690000
H       -2.78490000      -2.85860000      -1.19140000
H       -2.58870000      -1.28920000      -2.09340000
H       -0.82620000      -2.32160000      -3.55080000
H       -1.00710000      -3.90610000      -2.66810000
