15
Properties=species:S:1:pos:R:3 gdb_44915=T pbc="F F F"
O       -0.01920000       0.00890000       0.01660000
C        0.01450000       1.19980000      -0.01010000
O       -1.09360000       2.00190000      -0.00910000
C       -0.63720000       3.36930000      -0.05010000
C       -0.52490000       3.93080000       1.37160000
C        0.67560000       3.34380000       2.07470000
C        1.50360000       2.50980000       1.44450000
C        1.20630000       2.17590000      -0.00210000
O        0.63380000       3.31110000      -0.65530000
H       -1.31710000       3.93300000      -0.69050000
H       -0.44650000       5.02440000       1.32200000
H       -1.44790000       3.70610000       1.92000000
H        0.84080000       3.62260000       3.11100000
H        2.34980000       2.03910000       1.93130000
H        2.05910000       1.81460000      -0.57320000
