19
Properties=species:S:1:pos:R:3 gdb_123726=T pbc="F F F"
C       -0.00150000       1.60590000      -0.06570000
C        1.53990000       1.52580000       0.08880000
C        1.37730000       0.04590000       0.56650000
C       -0.04120000       0.05540000      -0.09120000
C        2.37880000      -0.98440000       0.18480000
C        3.11840000      -1.87280000       0.94500000
C        3.89660000      -2.59590000       0.01710000
N        3.67180000      -2.20090000      -1.23240000
N        2.74960000      -1.22530000      -1.10320000
H       -0.47620000       2.00610000       0.83460000
H       -0.39830000       2.13870000      -0.93230000
H        2.04710000       1.57790000      -0.87980000
H        2.03310000       2.22080000       0.77210000
H        1.27140000       0.02660000       1.65450000
H       -0.84450000      -0.45540000       0.44440000
H       -0.00840000      -0.33360000      -1.11380000
H        3.09120000      -1.97510000       2.01820000
H        4.60920000      -3.38530000       0.20690000
H        2.41660000      -0.76560000      -1.93340000
