16
Properties=species:S:1:pos:R:3 gdb_295=T pbc="F F F"
C       -0.22630000       1.59600000      -0.03560000
C        0.00750000       0.09120000      -0.04980000
C       -1.25750000      -0.69090000       0.27750000
C        0.83460000      -0.44610000      -1.25040000
C        1.90120000      -0.78250000      -0.19280000
O        1.08230000      -0.26710000       0.87330000
H        0.70070000       2.13440000      -0.25270000
H       -0.97600000       1.88050000      -0.78220000
H       -0.58380000       1.91610000       0.94850000
H       -2.04330000      -0.48590000      -0.45810000
H       -1.05840000      -1.76630000       0.28120000
H       -1.63270000      -0.41040000       1.26710000
H        0.39640000      -1.30250000      -1.76650000
H        1.12220000       0.30680000      -1.98670000
H        2.12290000      -1.84910000      -0.06190000
H        2.84960000      -0.23800000      -0.28240000
