19
Properties=species:S:1:pos:R:3 gdb_45802=T pbc="F F F"
O       -0.59810000       0.72720000       1.25150000
C       -0.25030000       1.35780000       0.27980000
C       -1.23170000       1.69700000      -0.83450000
C       -1.58390000       3.16070000      -0.96810000
C       -0.90720000       4.24820000      -0.59240000
C        0.40500000       4.40960000       0.08140000
C        0.62950000       4.00170000       1.53660000
C        1.38490000       3.31320000       0.43530000
C        1.18380000       1.83860000       0.11510000
H       -0.81610000       1.33620000      -1.78810000
H       -2.14260000       1.12130000      -0.64500000
H       -2.54650000       3.32560000      -1.44670000
H       -1.38870000       5.20120000      -0.80580000
H        0.88120000       5.35000000      -0.18300000
H        1.15640000       4.68750000       2.19090000
H       -0.17180000       3.44880000       2.01480000
H        2.42540000       3.60860000       0.32910000
H        1.80400000       1.23890000       0.78800000
H        1.50970000       1.64970000      -0.91580000
