16
Properties=species:S:1:pos:R:3 gdb_25783=T pbc="F F F"
N       -0.18610000       1.32570000       0.16840000
C        0.04690000      -0.02830000       0.06910000
N        1.24930000      -0.47250000       0.00830000
C       -1.16690000      -0.85950000       0.08080000
C       -1.36360000      -2.21110000       0.08800000
C       -2.77920000      -2.42420000       0.07760000
N       -3.41770000      -3.66600000       0.15810000
C       -3.34110000      -1.17810000       0.06220000
O       -2.36740000      -0.22010000       0.06990000
H        0.60770000       1.90340000      -0.06020000
H       -1.08770000       1.66760000      -0.11900000
H        1.25880000      -1.49000000      -0.00480000
H       -0.60100000      -2.97420000       0.10880000
H       -2.92770000      -4.39500000      -0.34300000
H       -4.38360000      -3.64100000      -0.14040000
H       -4.35770000      -0.82290000       0.05670000
