25
Properties=species:S:1:pos:R:3 gdb_123136=T pbc="F F F"
C        0.03280000       1.57730000       0.06370000
C        0.01910000       0.04850000       0.03350000
O        0.75790000      -0.49210000       1.12910000
C       -1.40370000      -0.52280000      -0.02470000
C       -1.44610000      -2.04980000      -0.13280000
C       -2.86760000      -2.62150000      -0.12290000
C       -2.90180000      -4.14800000      -0.24060000
C       -4.31430000      -4.71640000      -0.22650000
O       -4.22260000      -6.12890000      -0.34350000
H        1.05990000       1.94730000       0.12480000
H       -0.43670000       1.99770000      -0.83170000
H       -0.51870000       1.95330000       0.93510000
H        0.57030000      -0.29390000      -0.85200000
H        0.34200000      -0.17830000       1.94020000
H       -1.94790000      -0.19830000       0.87610000
H       -1.93200000      -0.07170000      -0.87540000
H       -0.93660000      -2.35990000      -1.05570000
H       -0.86490000      -2.47830000       0.69150000
H       -3.37560000      -2.31360000       0.80220000
H       -3.44560000      -2.17710000      -0.94570000
H       -2.40950000      -4.46620000      -1.16800000
H       -2.33610000      -4.60240000       0.58220000
H       -4.82250000      -4.42670000       0.70840000
H       -4.89680000      -4.28530000      -1.05780000
H       -5.11380000      -6.48960000      -0.33450000
