21
Properties=species:S:1:pos:R:3 gdb_84577=T pbc="F F F"
C       -0.11810000       1.60700000      -0.09200000
C        0.04140000       0.08280000      -0.02610000
C        0.63620000      -0.54420000      -1.27100000
C        1.47030000      -1.54440000      -0.99650000
C        1.62880000      -1.76050000       0.49630000
C        3.05070000      -1.69620000       1.00630000
C        3.30860000      -0.54060000       1.61310000
C        2.12160000       0.39170000       1.61170000
C        0.94080000      -0.49310000       1.11080000
H        0.82500000       2.11070000      -0.32330000
H       -0.83370000       1.87990000      -0.87520000
H       -0.49430000       2.00980000       0.85430000
H       -0.97040000      -0.33020000       0.11070000
H        0.36170000      -0.21440000      -2.26850000
H        1.98330000      -2.15650000      -1.73090000
H        1.13870000      -2.69820000       0.79660000
H        3.76300000      -2.50000000       0.85340000
H        4.26700000      -0.25520000       2.03440000
H        1.92110000       0.82070000       2.60050000
H        2.31880000       1.24430000       0.94980000
H        0.32790000      -0.76860000       1.97280000
