16
Properties=species:S:1:pos:R:3 gdb_66746=T pbc="F F F"
C        0.03950000       1.57880000      -0.03660000
C        0.02400000       0.08120000      -0.05790000
C        0.54500000      -0.92970000      -1.12730000
C        0.84490000      -1.86810000      -0.02560000
C        0.63670000      -0.84580000       1.09840000
C       -0.80920000      -1.07760000       1.56920000
O       -1.36590000      -1.15110000       2.62340000
C       -1.23680000      -0.85220000       0.11050000
N       -0.51560000      -1.89470000      -0.71530000
H        1.06300000       1.96640000      -0.08530000
H       -0.51750000       1.99150000      -0.88480000
H       -0.41930000       1.95810000       0.88340000
H        0.91060000      -0.84530000      -2.14350000
H        1.40880000      -2.79130000      -0.01270000
H        1.45690000      -0.56300000       1.75260000
H       -2.25480000      -0.64350000      -0.20920000
