17
Properties=species:S:1:pos:R:3 gdb_76439=T pbc="F F F"
C        0.05230000       1.58080000      -0.31900000
C       -0.00070000       0.10440000      -0.02560000
O       -1.18970000      -0.54370000      -0.46700000
C       -2.29270000      -0.39050000       0.29980000
O       -3.35090000      -0.85350000      -0.00190000
C        1.22720000      -0.77040000      -0.17580000
O        2.45360000      -0.19300000      -0.48120000
C        0.64500000      -0.51050000       1.19970000
O        1.36710000       0.36890000       2.02150000
H        1.04500000       1.98060000      -0.11130000
H       -0.17150000       1.74750000      -1.37670000
H       -0.67300000       2.13730000       0.28300000
H       -2.10060000       0.19180000       1.21990000
H        1.08230000      -1.74480000      -0.63220000
H        2.73610000       0.28660000       0.30990000
H        0.10790000      -1.30590000       1.71170000
H        1.92320000      -0.15990000       2.60490000
