19
Properties=species:S:1:pos:R:3 gdb_126651=T pbc="F F F"
C        0.01430000       1.54270000       0.05510000
C       -0.05500000       0.01680000      -0.03920000
C        0.72770000      -0.53410000      -1.22940000
N        0.60890000      -1.98340000      -1.31120000
C        1.30150000      -2.62960000      -2.32820000
C        1.90380000      -2.12520000      -3.44450000
O        2.39950000      -3.13260000      -4.20120000
N        2.14120000      -4.33560000      -3.57820000
C        1.49150000      -4.03680000      -2.48120000
H        1.04800000       1.88950000       0.15940000
H       -0.40560000       2.01380000      -0.84010000
H       -0.54830000       1.90940000       0.91830000
H        0.33980000      -0.42590000       0.88590000
H       -1.09740000      -0.31190000      -0.12110000
H        0.32530000      -0.11210000      -2.16000000
H        1.78260000      -0.21070000      -1.16910000
H        0.71950000      -2.43490000      -0.41280000
H        2.04900000      -1.13050000      -3.83030000
H        1.17110000      -4.83060000      -1.82040000
