19
Properties=species:S:1:pos:R:3 gdb_110582=T pbc="F F F"
C        0.04400000       1.59990000      -0.09420000
C        0.01380000       0.09710000       0.20590000
C       -1.38450000      -0.50300000       0.12840000
C       -2.00260000      -0.82940000      -1.25360000
C       -1.23390000      -2.18450000      -1.38370000
O       -2.42590000      -2.96510000      -1.68560000
C       -2.87320000      -1.99440000      -0.69640000
C       -1.53710000      -2.04570000       0.14010000
O       -1.13070000      -2.95480000       1.08730000
H        1.05890000       2.00110000      -0.01410000
H       -0.31950000       1.81160000      -1.10550000
H       -0.58970000       2.15510000       0.60650000
H        0.67920000      -0.43130000      -0.48880000
H        0.42120000      -0.08410000       1.20900000
H       -2.07300000       0.02050000       0.80600000
H       -2.27670000      -0.16760000      -2.07110000
H       -0.30660000      -2.42690000      -1.89990000
H       -3.91620000      -1.99910000      -0.38010000
H       -1.58360000      -2.76470000       1.91630000
