20
Properties=species:S:1:pos:R:3 gdb_112289=T pbc="F F F"
C       -0.13670000       1.51010000      -0.08100000
C       -0.01570000      -0.01480000      -0.00370000
C        0.77110000      -0.51130000       1.21410000
C        0.14310000      -0.16960000       2.59010000
C        0.53120000      -1.32680000       3.51970000
O        0.69070000      -1.26980000       4.71240000
C        0.77840000      -2.52710000       2.65050000
N       -0.31820000      -2.70710000       1.64820000
C        0.92200000      -2.03280000       1.25200000
H        0.85020000       1.98560000      -0.11660000
H       -0.68520000       1.81650000      -0.97680000
H       -0.66790000       1.91560000       0.78630000
H       -1.01210000      -0.47200000       0.01960000
H        0.47330000      -0.38560000      -0.91450000
H        1.78360000      -0.08540000       1.18060000
H        0.47280000       0.78090000       3.01150000
H       -0.95080000      -0.14500000       2.52170000
H        1.29470000      -3.39210000       3.04890000
H       -0.29280000      -3.67590000       1.33750000
H        1.59110000      -2.52390000       0.55190000
