20
Properties=species:S:1:pos:R:3 gdb_64385=T pbc="F F F"
C       -0.12690000       1.58110000      -0.09660000
C       -0.01540000       0.05650000      -0.01160000
C       -1.40850000      -0.59200000      -0.03440000
C        0.85250000      -0.52430000      -1.15420000
O        1.40460000      -1.72740000      -0.64750000
C        1.86900000      -1.40510000       0.64520000
C        0.77220000      -0.47650000       1.25670000
C        1.34220000       0.55140000       2.11750000
N        1.80850000       1.35740000       2.80310000
H        0.85310000       2.06450000      -0.05360000
H       -0.60530000       1.86880000      -1.03900000
H       -0.73270000       1.98440000       0.72020000
H       -1.96700000      -0.27470000      -0.92130000
H       -1.32770000      -1.68340000      -0.05610000
H       -1.99190000      -0.30770000       0.84760000
H        0.27590000      -0.76630000      -2.05030000
H        1.65290000       0.18290000      -1.42780000
H        2.00800000      -2.33020000       1.20760000
H        2.82900000      -0.86930000       0.59920000
H        0.09010000      -1.07160000       1.87060000
