14
Properties=species:S:1:pos:R:3 gdb_128310=T pbc="F F F"
C       -0.06170000       1.42570000       0.12430000
N       -0.05410000      -0.00090000      -0.14310000
C       -1.20610000      -0.72360000      -0.05870000
N       -2.42080000      -0.16410000      -0.02570000
N       -3.22780000      -1.25110000       0.00050000
C       -2.49050000      -2.38120000      -0.00350000
N       -1.19920000      -2.08870000      -0.03970000
C       -3.07290000      -3.67650000       0.02820000
N       -3.58660000      -4.71280000       0.05550000
H        0.93760000       1.82310000      -0.06350000
H       -0.76410000       1.92170000      -0.55030000
H       -0.35540000       1.66920000       1.15510000
H        0.76860000      -0.51960000       0.11940000
H       -4.22880000      -1.14380000       0.02890000
