21
Properties=species:S:1:pos:R:3 gdb_53388=T pbc="F F F"
C        0.14590000       1.40780000      -0.55090000
C        0.08990000      -0.01840000      -0.26180000
C        0.05810000      -1.19890000      -0.01870000
C       -0.00780000      -2.61580000       0.27550000
C       -0.03310000      -3.08810000       1.77000000
C       -1.11570000      -4.14010000       1.39820000
C       -1.34910000      -3.37180000       0.09260000
C       -2.63780000      -2.73600000      -0.33030000
C       -1.99700000      -3.81140000      -1.18200000
H        1.11300000       1.83420000      -0.26160000
H        0.00660000       1.60440000      -1.61990000
H       -0.63220000       1.95790000      -0.00990000
H        0.78740000      -3.14600000      -0.26370000
H        0.91050000      -3.45330000       2.17990000
H       -0.42690000      -2.30440000       2.41990000
H       -0.68990000      -5.13510000       1.23080000
H       -1.96690000      -4.23500000       2.07710000
H       -3.53710000      -2.98890000       0.22280000
H       -2.59820000      -1.71230000      -0.68840000
H       -1.53700000      -3.51030000      -2.11830000
H       -2.46180000      -4.79240000      -1.20840000
