17
Properties=species:S:1:pos:R:3 gdb_48541=T pbc="F F F"
O       -0.12470000      -0.03760000      -0.02910000
C       -0.03030000       1.16580000      -0.07660000
C        1.24520000       1.90870000      -0.03800000
C        1.70290000       2.95510000       1.08060000
C        2.97900000       2.09290000       1.28550000
C        2.69280000       1.35940000      -0.04360000
O        3.03850000       2.18280000      -1.18500000
C        1.80780000       2.92440000      -1.09520000
C        1.87210000       4.03170000      -0.02180000
H       -0.93890000       1.80860000      -0.14530000
H        1.10260000       3.20110000       1.95570000
H        3.93810000       2.61040000       1.36740000
H        2.85390000       1.41100000       2.13260000
H        2.98580000       0.31840000      -0.17830000
H        1.37810000       3.13520000      -2.07670000
H        0.98730000       4.67440000      -0.08060000
H        2.77190000       4.65210000      -0.00600000
