24
Properties=species:S:1:pos:R:3 gdb_101853=T pbc="F F F"
C       -0.00660000       1.51720000       0.12560000
C        0.04180000      -0.00760000      -0.01400000
C        0.71980000      -0.50610000      -1.30340000
C        2.20200000      -0.12030000      -1.39130000
C        0.54400000      -2.01960000      -1.41620000
O        1.04060000      -2.44720000      -2.68690000
C        1.22450000      -3.77180000      -2.84540000
N        1.56910000      -4.24620000      -3.95810000
C        1.77130000      -5.67700000      -4.03620000
H        0.99460000       1.95270000       0.19100000
H       -0.51450000       1.97580000      -0.73020000
H       -0.55090000       1.80750000       1.02950000
H        0.56080000      -0.43700000       0.85440000
H       -0.98350000      -0.39870000       0.02090000
H        0.19470000      -0.06280000      -2.16090000
H        2.75420000      -0.49510000      -0.52030000
H        2.65620000      -0.54550000      -2.28910000
H        2.33250000       0.96430000      -1.42780000
H        1.09130000      -2.52960000      -0.60930000
H       -0.51730000      -2.29040000      -1.32970000
H        1.05810000      -4.36800000      -1.93330000
H        1.58630000      -6.21020000      -3.08860000
H        1.11220000      -6.10130000      -4.80250000
H        2.79980000      -5.88780000      -4.35160000
