21
Properties=species:S:1:pos:R:3 gdb_72159=T pbc="F F F"
O       -0.07740000       1.36100000       0.01530000
C        0.06870000      -0.03220000       0.00240000
C        0.83420000      -0.73370000       1.15500000
C        0.25720000      -2.12260000       0.79630000
C       -1.21710000      -1.80990000       1.15220000
C       -1.36270000      -0.78510000       0.00320000
C       -1.22910000      -1.78960000      -1.16510000
C        0.24880000      -2.10830000      -0.83000000
C        0.82220000      -0.71330000      -1.17020000
H        0.80140000       1.75520000       0.01340000
H        1.91840000      -0.62960000       1.05280000
H        0.54650000      -0.40780000       2.15700000
H        0.72030000      -2.99520000       1.25590000
H       -1.91440000      -2.64490000       1.05010000
H       -1.31730000      -1.40360000       2.16120000
H       -2.21510000      -0.10740000       0.01350000
H       -1.92530000      -2.62630000      -1.07050000
H       -1.33970000      -1.36570000      -2.16580000
H        0.70710000      -2.97270000      -1.30960000
H        0.52420000      -0.36990000      -2.16340000
H        1.90740000      -0.61090000      -1.07740000
