20
Properties=species:S:1:pos:R:3 gdb_52417=T pbc="F F F"
O        0.06520000       0.69820000       1.11430000
C        0.39800000       1.15180000       0.05210000
C        1.81110000       1.62620000      -0.27260000
O        1.86170000       2.42230000      -1.42840000
C        1.42720000       3.75590000      -1.21700000
C        1.51480000       4.49040000      -2.54850000
N        1.06780000       5.86610000      -2.38490000
C        2.10010000       6.85000000      -2.06500000
C        1.48400000       6.80510000      -3.41910000
H       -0.30410000       1.23250000      -0.81050000
H        2.23890000       2.12530000       0.61010000
H        2.41630000       0.73180000      -0.47140000
H        0.39270000       3.78900000      -0.84300000
H        2.06350000       4.24810000      -0.46350000
H        2.54760000       4.41550000      -2.93240000
H        0.86050000       3.99370000      -3.27350000
H        1.81710000       7.61970000      -1.35310000
H        3.12780000       6.50010000      -1.97650000
H        2.10170000       6.42720000      -4.23240000
H        0.74200000       7.54130000      -3.71460000
