16
Properties=species:S:1:pos:R:3 gdb_25753=T pbc="F F F"
C        0.08270000       1.48540000      -0.00570000
C       -0.06400000       0.00970000       0.05180000
C       -1.14780000      -0.83240000       0.07370000
C       -0.61160000      -2.17070000       0.12920000
C        0.73410000      -2.03870000       0.13460000
O        1.08020000      -0.72010000       0.08340000
C       -2.56300000      -0.40090000       0.04030000
N       -3.47820000      -1.41460000      -0.12390000
O       -2.91950000       0.75910000       0.17590000
H        0.63430000       1.79010000      -0.90240000
H       -0.90850000       1.93690000      -0.01160000
H        0.64090000       1.85350000       0.86240000
H       -1.15720000      -3.09930000       0.19280000
H        1.55370000      -2.73620000       0.17670000
H       -3.19810000      -2.28920000      -0.53490000
H       -4.42610000      -1.11630000      -0.29440000
