17
Properties=species:S:1:pos:R:3 gdb_23129=T pbc="F F F"
O        0.06520000       1.36410000      -0.31030000
C        0.03810000      -0.03080000      -0.04030000
C       -1.39770000      -0.55910000       0.09960000
N       -2.19020000      -0.24250000      -1.09940000
C       -2.39000000      -1.41740000      -1.79860000
C       -2.02280000      -2.52460000      -1.11150000
C       -1.44160000      -2.08210000       0.14180000
N       -1.00100000      -2.71380000       1.16700000
O       -1.11670000      -4.10890000       0.97780000
H       -0.20870000       1.82790000       0.48810000
H        0.51850000      -0.51300000      -0.89730000
H        0.60600000      -0.29600000       0.86110000
H       -1.86050000      -0.11750000       0.99020000
H       -1.90020000       0.58660000      -1.60040000
H       -2.84160000      -1.37040000      -2.78200000
H       -2.16850000      -3.55060000      -1.40310000
H       -0.78310000      -4.45110000       1.81310000
