23
Properties=species:S:1:pos:R:3 gdb_111747=T pbc="F F F"
C       -0.13800000       1.53380000       0.16310000
C       -0.20510000       0.01510000      -0.05300000
C        0.65660000      -0.44670000      -1.19820000
C        0.34710000      -0.17760000      -2.68210000
C        0.86260000      -1.60280000      -3.04870000
C        1.18760000      -1.86130000      -1.57320000
C        2.09910000      -0.78540000      -1.04620000
O        3.06150000      -0.15830000      -1.83750000
C        4.24380000      -0.92110000      -1.96820000
H        0.88460000       1.85260000       0.38960000
H       -0.46160000       2.07430000      -0.73270000
H       -0.78250000       1.84430000       0.99140000
H        0.10110000      -0.50170000       0.86540000
H       -1.24600000      -0.28250000      -0.23880000
H       -0.72480000      -0.06440000      -2.86400000
H        0.87760000       0.66420000      -3.13300000
H        0.06600000      -2.24910000      -3.42300000
H        1.70790000      -1.65100000      -3.74130000
H        1.05640000      -2.80400000      -1.05230000
H        2.41930000      -0.94190000      -0.01250000
H        4.73660000      -1.07360000      -0.99540000
H        4.04490000      -1.90740000      -2.41110000
H        4.91910000      -0.36310000      -2.62130000
