20
Properties=species:S:1:pos:R:3 gdb_74617=T pbc="F F F"
C        0.05550000       1.49950000       0.03740000
C       -0.08860000       0.01220000      -0.00830000
C       -0.06160000      -0.78670000      -1.08620000
C       -0.11690000      -2.20630000      -0.66600000
C       -0.54680000      -2.26380000       0.74320000
N        0.84180000      -2.72130000       0.42750000
C        1.35840000      -1.55440000       1.19340000
C       -0.05800000      -0.86380000       1.23700000
C       -0.55160000      -0.28410000       2.54530000
H        0.97070000       1.80120000       0.56410000
H        0.09430000       1.92360000      -0.96950000
H       -0.77880000       1.96950000       0.57260000
H        0.05320000      -0.46830000      -2.11520000
H       -0.35090000      -3.00390000      -1.36020000
H       -1.30600000      -2.90600000       1.18130000
H        1.65520000      -1.92120000       2.18000000
H        2.18480000      -1.00210000       0.73260000
H        0.01700000       0.60890000       2.82660000
H       -1.60780000       0.00100000       2.48210000
H       -0.44990000      -1.01050000       3.35850000
