19
Properties=species:S:1:pos:R:3 gdb_116916=T pbc="F F F"
C        0.68870000       1.23030000      -0.52250000
C        0.00350000      -0.00790000      -0.01110000
O        0.82520000      -1.02770000       0.55140000
C       -0.09130000      -0.34410000       1.42920000
C        0.46350000       0.48910000       2.46100000
C        0.89470000       1.18230000       3.34770000
C        1.43790000       1.99090000       4.43020000
C        2.24500000       1.16260000       5.43740000
O        2.70730000       2.06240000       6.42950000
H        1.41880000       1.59700000       0.20190000
H        1.20460000       1.01570000      -1.46400000
H       -0.04600000       2.01990000      -0.71260000
H       -0.79920000      -0.39360000      -0.64380000
H       -0.93270000      -0.96290000       1.74200000
H        2.08630000       2.78040000       4.03160000
H        0.62810000       2.49800000       4.96900000
H        1.60180000       0.37850000       5.86370000
H        3.07600000       0.66440000       4.91700000
H        3.22940000       1.56720000       7.06710000
