17
Properties=species:S:1:pos:R:3 gdb_57239=T pbc="F F F"
C       -0.01690000       1.53040000      -0.02580000
C       -0.01670000      -0.02030000      -0.01210000
C        0.75760000      -0.53840000       1.22750000
C       -1.39110000      -0.51730000       0.01690000
C       -2.52720000      -0.90040000       0.08680000
C        0.69270000      -0.52830000      -1.29040000
O        0.16270000      -1.22730000      -2.12020000
C        2.07890000      -0.10740000      -1.44970000
C        3.22540000       0.22350000      -1.61020000
H        1.00630000       1.91350000      -0.05980000
H       -0.56630000       1.91280000      -0.88980000
H       -0.50130000       1.90240000       0.88050000
H        0.27520000      -0.17230000       2.13730000
H        0.76080000      -1.63100000       1.25700000
H        1.79100000      -0.18240000       1.21030000
H       -3.52920000      -1.24950000       0.12990000
H        4.23810000       0.50830000      -1.76460000
