23
Properties=species:S:1:pos:R:3 gdb_119417=T pbc="F F F"
C        0.04910000       1.53230000       0.05350000
C       -0.03080000       0.00780000       0.15850000
C       -1.44220000      -0.53590000      -0.11680000
C       -1.50450000      -2.02970000      -0.05850000
C       -1.64030000      -2.88950000       1.16720000
C       -2.61280000      -3.06430000       0.01050000
C       -4.10430000      -2.96070000       0.13420000
C       -1.85620000      -3.74740000      -1.12500000
O       -0.79090000      -2.76290000      -1.07060000
H        1.06350000       1.89220000       0.25160000
H       -0.23610000       1.87610000      -0.94710000
H       -0.62220000       2.01670000       0.77190000
H        0.66660000      -0.45270000      -0.55050000
H        0.28770000      -0.31530000       1.15730000
H       -2.14960000      -0.12430000       0.61430000
H       -1.77630000      -0.20100000      -1.10760000
H       -0.88680000      -3.64270000       1.38450000
H       -2.06680000      -2.40140000       2.03910000
H       -4.38750000      -2.19230000       0.86080000
H       -4.56960000      -2.70190000      -0.82380000
H       -4.54430000      -3.90660000       0.47340000
H       -1.49080000      -4.76870000      -0.95930000
H       -2.37920000      -3.69640000      -2.08850000
