19
Properties=species:S:1:pos:R:3 gdb_33034=T pbc="F F F"
C        0.12140000       1.53770000       0.12850000
C        0.07090000       0.01080000       0.05050000
C        0.57540000      -0.52780000      -1.30280000
C        0.57380000      -2.00860000      -1.39390000
C       -0.07560000      -2.89560000      -2.15800000
N        0.34230000      -4.16650000      -1.76290000
C        1.25870000      -4.05980000      -0.74110000
N        1.84390000      -5.01170000      -0.14190000
O        1.40240000      -2.70370000      -0.51290000
H        1.14400000       1.90820000      -0.00410000
H       -0.49950000       1.99740000      -0.64880000
H       -0.23910000       1.89660000       1.09720000
H        0.67680000      -0.42630000       0.85160000
H       -0.95480000      -0.34160000       0.21170000
H       -0.04660000      -0.13770000      -2.11670000
H        1.59320000      -0.15160000      -1.47850000
H       -0.79190000      -2.74190000      -2.94640000
H        0.05010000      -5.05140000      -2.13380000
H        2.47240000      -4.65330000       0.57150000
