16
Properties=species:S:1:pos:R:3 gdb_98516=T pbc="F F F"
C       -0.21370000       1.47080000      -0.21510000
N       -0.24570000       0.04140000      -0.45960000
C        0.86610000      -0.65850000      -0.77600000
O        1.98690000      -0.19420000      -0.88110000
C        0.63740000      -2.14920000      -1.03570000
C        1.56540000      -2.78800000      -2.01150000
O        1.72810000      -2.99480000      -0.63100000
C       -0.67350000      -2.84480000      -0.85100000
O       -1.74500000      -2.31390000      -0.67190000
H        0.81190000       1.81180000      -0.35700000
H       -0.87090000       2.00210000      -0.91200000
H       -0.52990000       1.70240000       0.80770000
H       -1.12240000      -0.46380000      -0.42330000
H        1.23250000      -3.64940000      -2.59010000
H        2.29040000      -2.12200000      -2.47300000
H       -0.57070000      -3.94910000      -0.88170000
