13
Properties=species:S:1:pos:R:3 gdb_2085=T pbc="F F F"
O        0.00790000       0.07950000       0.51620000
C       -0.01410000       1.14910000      -0.01340000
O       -1.19030000       1.75590000      -0.28860000
C       -1.27210000       3.00840000      -0.98560000
C       -0.06090000       3.87370000      -0.69680000
C        1.16570000       3.04220000      -1.01850000
O        1.13710000       1.78780000      -0.32060000
H       -1.35710000       2.80450000      -2.06110000
H       -2.20590000       3.46610000      -0.65120000
H       -0.08160000       4.77900000      -1.31120000
H       -0.05090000       4.17500000       0.35600000
H        1.22750000       2.84080000      -2.09600000
H        2.09500000       3.52540000      -0.70870000
