14
Properties=species:S:1:pos:R:3 gdb_127190=T pbc="F F F"
C       -0.07100000       1.43820000      -0.08720000
N       -0.01520000      -0.02370000      -0.00610000
C       -1.21300000      -0.72960000       0.02390000
N       -2.32440000      -0.10240000      -0.01880000
C       -1.03390000      -2.18050000       0.10500000
N        0.08230000      -2.79750000       0.14800000
O        1.23400000      -2.01780000       0.11460000
C        1.22110000      -0.63660000       0.03810000
O        2.27470000      -0.06730000       0.01570000
H        0.95050000       1.80900000      -0.10350000
H       -0.60800000       1.73310000      -0.99130000
H       -0.61510000       1.83130000       0.77430000
H       -3.10690000      -0.75380000       0.01110000
H       -1.91470000      -2.81510000       0.13280000
