25
Properties=species:S:1:pos:R:3 gdb_118169=T pbc="F F F"
C        0.12450000       1.65760000      -0.00660000
C       -0.01130000       0.13180000      -0.00490000
C        0.63890000      -0.52120000      -1.23060000
C        0.62370000      -2.06000000      -1.23700000
C       -0.79510000      -2.64000000      -1.27670000
C        1.46850000      -2.58200000      -2.42750000
C        1.66530000      -4.02800000      -2.43110000
C        1.82800000      -5.22150000      -2.41060000
C        2.03390000      -6.66330000      -2.39840000
H        1.17710000       1.96190000      -0.01290000
H       -0.34990000       2.09590000      -0.89190000
H       -0.34560000       2.10190000       0.87640000
H        0.44690000      -0.27530000       0.90650000
H       -1.07350000      -0.13450000       0.04300000
H        0.14550000      -0.15250000      -2.14220000
H        1.68170000      -0.17970000      -1.29440000
H        1.11270000      -2.40970000      -0.31740000
H       -0.76390000      -3.73130000      -1.33750000
H       -1.36870000      -2.36890000      -0.38620000
H       -1.34230000      -2.26970000      -2.15280000
H        0.98730000      -2.27260000      -3.36660000
H        2.44730000      -2.08460000      -2.41410000
H        3.02670000      -6.92740000      -2.78000000
H        1.95300000      -7.07000000      -1.38410000
H        1.29390000      -7.17950000      -3.02030000
