16
Properties=species:S:1:pos:R:3 gdb_7963=T pbc="F F F"
C        0.06570000       1.51860000      -0.25070000
C       -0.02100000       0.03400000       0.07550000
O        0.50440000      -0.73000000      -1.02800000
C        1.75620000      -1.16560000      -0.73040000
O        2.49470000      -1.68880000      -1.50180000
O        2.04180000      -0.91520000       0.57270000
C        0.84900000      -0.47410000       1.24780000
C        1.20800000       0.50710000       2.34600000
H        1.10410000       1.83740000      -0.37960000
H       -0.47040000       1.71760000      -1.18190000
H       -0.38860000       2.11860000       0.54320000
H       -1.06390000      -0.26600000       0.20650000
H        0.37600000      -1.36270000       1.68570000
H        1.72210000       1.38430000       1.94700000
H        0.30460000       0.83530000       2.86940000
H        1.86520000       0.02470000       3.07370000
