19
Properties=species:S:1:pos:R:3 gdb_112986=T pbc="F F F"
C       -0.06700000       1.76430000       0.36530000
C       -0.23390000       0.25130000       0.19260000
C        0.69860000      -0.54900000       1.10160000
C        0.72590000      -2.10210000       0.90960000
N        2.15560000      -1.97890000       0.57160000
C        3.12390000      -2.87290000       0.21520000
O        4.26650000      -2.56520000      -0.04600000
C        2.17950000      -0.56940000       0.71800000
N        3.06150000       0.31580000       0.57150000
H        0.96660000       2.06310000       0.17240000
H       -0.72170000       2.30920000      -0.32110000
H       -0.32030000       2.07310000       1.38550000
H       -1.26930000      -0.04250000       0.40710000
H       -0.04090000      -0.02830000      -0.85100000
H        0.55330000      -0.26090000       2.14730000
H        0.53420000      -2.69650000       1.80670000
H        0.11250000      -2.46900000       0.08130000
H        2.74910000      -3.91520000       0.19210000
H        3.94820000      -0.10260000       0.28470000
