22
Properties=species:S:1:pos:R:3 gdb_89016=T pbc="F F F"
C        0.16350000       1.46860000      -0.43720000
C        0.02320000       0.04670000       0.06440000
C        1.20000000      -0.89920000       0.08000000
C        0.58390000      -0.43200000       1.38400000
C        1.35330000       0.46620000       2.32760000
N        2.26120000      -0.29970000       3.16900000
C        2.26780000      -0.20990000       4.53160000
C        3.25370000      -1.13250000       5.23450000
O        1.54360000       0.54920000       5.15150000
H        1.15130000       1.88680000      -0.22490000
H        0.02230000       1.50640000      -1.52290000
H       -0.58240000       2.12960000       0.01780000
H       -0.92800000      -0.40880000      -0.19970000
H        1.05860000      -1.92840000      -0.23140000
H        2.16650000      -0.48300000      -0.19220000
H       -0.02240000      -1.16800000       1.90610000
H        1.91400000       1.22510000       1.76810000
H        0.68520000       0.99350000       3.01330000
H        2.86220000      -0.97050000       2.71930000
H        2.69900000      -1.78650000       5.91270000
H        3.84850000      -1.74770000       4.55410000
H        3.92680000      -0.52590000       5.84600000
