19
Properties=species:S:1:pos:R:3 gdb_57510=T pbc="F F F"
C        0.09220000       1.55100000      -0.02100000
C        0.05420000       0.02450000       0.07920000
C        0.93440000      -0.45740000       1.24600000
O       -1.30910000      -0.31290000       0.30840000
C        0.52880000      -0.58640000      -1.26220000
C        0.37590000      -2.09270000      -1.37520000
O       -0.32110000      -2.76320000      -0.63540000
C        1.10910000      -2.71180000      -2.46480000
C        1.72690000      -3.20100000      -3.37480000
H        1.10710000       1.91240000      -0.21320000
H       -0.56310000       1.89640000      -0.82580000
H       -0.26230000       1.98950000       0.91590000
H        0.56360000      -0.02740000       2.18030000
H        0.90550000      -1.54640000       1.33820000
H        1.97770000      -0.15030000       1.11430000
H       -1.35200000      -1.27910000       0.30560000
H       -0.06320000      -0.15820000      -2.08390000
H        1.57180000      -0.32490000      -1.47570000
H        2.26580000      -3.65090000      -4.17340000
