13
Properties=species:S:1:pos:R:3 gdb_4743=T pbc="F F F"
C        0.01240000       1.49420000       0.03330000
C       -0.00520000       0.00400000      -0.02240000
C       -0.11920000      -0.82670000      -1.09900000
O       -0.08660000      -2.11200000      -0.66870000
C        0.04810000      -2.01080000       0.67550000
C        0.12050000      -3.22430000       1.49910000
O        0.06840000      -4.35030000       1.06780000
N        0.10130000      -0.78280000       1.10930000
H        0.94550000       1.85490000       0.47730000
H       -0.08380000       1.92580000      -0.96590000
H       -0.80880000       1.86900000       0.65240000
H       -0.22380000      -0.67500000      -2.16030000
H        0.22970000      -2.98860000       2.57590000
