15
Properties=species:S:1:pos:R:3 gdb_4183=T pbc="F F F"
O       -0.19610000       1.28920000      -0.25520000
N       -0.05140000      -0.10460000      -0.18730000
C       -1.15880000      -0.66740000       0.05580000
C       -2.57580000      -0.22480000       0.38850000
C       -2.92850000      -1.71920000       0.66180000
C       -3.34690000      -2.51340000      -0.58460000
O       -1.96960000      -2.76680000      -0.95390000
C       -1.47460000      -2.13440000       0.25000000
H        0.70530000       1.58050000      -0.43150000
H       -2.61830000       0.42220000       1.26990000
H       -3.13280000       0.26150000      -0.41830000
H       -3.38770000      -1.96370000       1.61700000
H       -3.87610000      -3.45140000      -0.37500000
H       -3.89250000      -1.95860000      -1.35790000
H       -0.77950000      -2.76780000       0.80530000
