17
Properties=species:S:1:pos:R:3 gdb_46003=T pbc="F F F"
O        0.01210000       0.04390000       0.31150000
C        0.06410000       1.24660000       0.16110000
N       -1.02430000       2.11000000       0.18130000
C       -0.66630000       3.46500000      -0.16370000
C        0.84380000       3.37940000      -0.25300000
C        1.24750000       2.11110000      -0.06690000
N        1.57380000       4.50510000      -0.59020000
C        1.71050000       5.63960000       0.31880000
C        2.87860000       4.76720000      -0.01330000
H       -1.96170000       1.75060000       0.11940000
H       -1.08760000       3.79190000      -1.12500000
H       -0.98480000       4.19220000       0.59690000
H        2.25450000       1.72330000      -0.09350000
H        1.61070000       6.62070000      -0.13510000
H        1.28840000       5.54280000       1.31630000
H        3.22820000       4.08850000       0.76110000
H        3.63840000       5.11450000      -0.70650000
