20
Properties=species:S:1:pos:R:3 gdb_73787=T pbc="F F F"
C        0.49520000       1.48440000       0.04520000
C        0.18300000       0.01700000      -0.04110000
C       -0.13560000      -0.61550000      -1.19150000
C       -0.28900000       0.07040000      -2.52900000
C       -0.29350000      -2.09540000      -1.19390000
O       -0.55730000      -2.72080000      -2.20460000
C       -0.05260000      -2.81520000       0.13220000
N       -0.38910000      -2.02820000       1.31470000
C        0.26640000      -0.72730000       1.27740000
H        1.41460000       1.64490000       0.62230000
H        0.61990000       1.95180000      -0.93200000
H       -0.30030000       2.01840000       0.58220000
H        0.68060000       0.37050000      -2.94430000
H       -0.74590000      -0.62440000      -3.23520000
H       -0.91070000       0.96750000      -2.46210000
H       -0.61370000      -3.75300000       0.12390000
H        1.01420000      -3.08150000       0.18020000
H       -1.39460000      -1.88220000       1.32900000
H        1.33010000      -0.86250000       1.53590000
H       -0.15030000      -0.09970000       2.07490000
