16
Properties=species:S:1:pos:R:3 gdb_133629=T pbc="F F F"
F        0.17130000       0.12170000      -0.11780000
C       -0.01810000       1.44450000       0.02300000
F        1.19860000       2.02000000       0.01430000
F       -0.67260000       1.87490000      -1.06500000
C       -0.77950000       1.76750000       1.29270000
C       -0.03990000       1.32060000       2.54650000
C        1.18010000       2.14750000       3.01580000
O        0.59750000       2.34310000       4.32080000
C       -0.63700000       1.72480000       3.91310000
H       -0.95540000       2.84820000       1.30520000
H       -1.75450000       1.27490000       1.21710000
H        0.17910000       0.25250000       2.48590000
H        2.13980000       1.62230000       3.06540000
H        1.32120000       3.09580000       2.48140000
H       -1.46180000       2.44990000       3.85530000
H       -0.93170000       0.90700000       4.58060000
