15
Properties=species:S:1:pos:R:3 gdb_49462=T pbc="F F F"
O        0.31170000      -0.14060000       0.58040000
C        0.16300000       0.98390000       0.16830000
C        1.28940000       1.94040000       0.01540000
C        1.43200000       2.90400000      -1.17790000
C        0.22070000       3.22340000      -2.02680000
C       -0.77500000       3.86120000      -1.05120000
O       -1.89010000       4.22660000      -1.25740000
O       -0.19580000       3.94900000       0.19430000
C        1.11970000       3.44120000       0.17800000
H       -0.84370000       1.35580000      -0.11280000
H        2.23020000       1.54140000       0.38040000
H        2.42110000       2.99290000      -1.60790000
H        0.46360000       3.95370000      -2.80480000
H       -0.25320000       2.37270000      -2.52240000
H        1.79550000       4.00920000       0.80430000
