19
Properties=species:S:1:pos:R:3 gdb_55083=T pbc="F F F"
C        0.56570000       0.45730000      -0.80510000
C       -0.15080000       0.15170000       0.49420000
O        0.12590000       0.71770000       1.52910000
C       -1.22890000      -0.92390000       0.48650000
C       -2.15310000      -1.19860000      -0.75770000
C       -1.66170000      -2.65930000      -0.75920000
C       -2.38310000      -3.88380000      -1.21560000
O       -0.23690000      -2.59930000      -0.95120000
C       -0.75120000      -2.39330000       0.36970000
H        0.83300000      -0.46740000      -1.32360000
H       -0.10390000       1.01400000      -1.47220000
H        1.44560000       1.06870000      -0.60060000
H       -1.81740000      -0.79650000       1.39770000
H       -3.21060000      -1.08720000      -0.50790000
H       -1.93770000      -0.64660000      -1.67500000
H       -2.51140000      -3.87460000      -2.30400000
H       -1.82050000      -4.78130000      -0.94650000
H       -3.37720000      -3.94000000      -0.76080000
H       -0.36500000      -3.03130000       1.15670000
