12
Properties=species:S:1:pos:R:3 gdb_23960=T pbc="F F F"
N        0.16140000      -1.14270000      -0.00520000
C        0.04350000       0.00990000       0.00250000
C       -0.06490000       1.41620000       0.01160000
C       -1.18610000       2.24730000       0.03200000
C       -0.71620000       3.58900000       0.03250000
C        0.65800000       3.54000000       0.01290000
N        1.03960000       2.22970000       0.00030000
C       -2.53730000       1.82340000       0.04890000
N       -3.64780000       1.49680000       0.06280000
H       -1.33060000       4.47420000       0.04590000
H        1.38970000       4.33110000       0.00680000
H        1.98790000       1.89170000      -0.01490000
