20
Properties=species:S:1:pos:R:3 gdb_102759=T pbc="F F F"
O        0.08770000       1.11890000      -0.58590000
C        0.03870000      -0.11850000       0.10600000
C       -1.42250000      -0.60010000       0.11570000
C       -1.55770000      -2.02880000       0.66330000
C       -2.90090000      -2.66620000       0.37410000
C       -3.11890000      -3.39930000      -0.89850000
N       -3.04160000      -4.13050000       0.38100000
C       -2.27660000       0.40710000       0.87060000
O       -3.00880000       0.13150000       1.78900000
H        0.97160000       1.48650000      -0.49470000
H        0.66000000      -0.87970000      -0.39040000
H        0.40530000      -0.01820000       1.14000000
H       -1.75680000      -0.56440000      -0.93220000
H       -0.76920000      -2.65310000       0.22140000
H       -1.38920000      -2.01370000       1.74680000
H       -3.74570000      -2.15460000       0.82530000
H       -4.09640000      -3.40650000      -1.37220000
H       -2.28310000      -3.47450000      -1.59110000
H       -2.12400000      -4.56290000       0.46890000
H       -2.16500000       1.45270000       0.51840000
