19
Properties=species:S:1:pos:R:3 gdb_103327=T pbc="F F F"
C        0.32670000       1.32750000      -0.75910000
C       -0.06190000       0.02980000      -0.05630000
C       -1.46620000      -0.44770000      -0.50750000
O       -2.44690000      -0.37630000       0.51190000
C        1.10350000      -0.99930000       0.14780000
O        1.74810000      -0.05430000       1.08330000
C        0.31270000      -0.04770000       1.46340000
C        0.41400000      -1.58920000       1.42230000
O       -0.76690000      -2.35240000       1.39200000
H        1.30550000       1.68350000      -0.43740000
H        0.34650000       1.18100000      -1.84530000
H       -0.41940000       2.10270000      -0.55080000
H       -1.81680000       0.21430000      -1.30530000
H       -1.40730000      -1.45870000      -0.93210000
H       -2.28370000      -1.13900000       1.08040000
H        1.74520000      -1.48510000      -0.59020000
H        0.01370000       0.60240000       2.28550000
H        1.13950000      -1.97940000       2.14140000
H       -0.53780000      -3.28480000       1.33910000
