21
Properties=species:S:1:pos:R:3 gdb_93925=T pbc="F F F"
C       -0.14930000       1.45940000       0.10080000
C        0.08270000      -0.04020000       0.07900000
C        0.71470000      -0.60190000      -1.20120000
C        1.36930000      -1.90720000      -0.71390000
C        1.59070000      -1.63710000       0.81250000
O        1.03500000      -0.37160000       1.09470000
C        0.92620000      -2.74690000       1.63940000
C        1.75490000      -4.00270000       1.84320000
O       -0.19380000      -2.62650000       2.07420000
H        0.78590000       1.99480000      -0.09170000
H       -0.87990000       1.74380000      -0.66280000
H       -0.53210000       1.77370000       1.07550000
H       -0.86000000      -0.56730000       0.28810000
H       -0.01380000      -0.76600000      -1.99910000
H        1.47340000       0.09730000      -1.56920000
H        0.69640000      -2.75720000      -0.86440000
H        2.30520000      -2.13300000      -1.22850000
H        2.65870000      -1.59720000       1.06040000
H        2.21060000      -4.33280000       0.90310000
H        2.57770000      -3.78760000       2.53560000
H        1.13460000      -4.79780000       2.25850000
