14
Properties=species:S:1:pos:R:3 gdb_61110=T pbc="F F F"
O       -0.09760000       1.41700000       0.04980000
C       -0.05020000      -0.00360000      -0.01100000
C       -1.43330000      -0.49230000      -0.05050000
C       -2.55250000      -0.92340000      -0.05600000
C        0.68860000      -0.45710000      -1.20080000
C        1.34740000      -0.79410000      -2.14690000
C        0.67850000      -0.57380000       1.25520000
C        0.07060000      -0.12210000       2.50250000
N       -0.39000000       0.22230000       3.50380000
H        0.76510000       1.75080000      -0.22350000
H       -3.54940000      -1.29140000      -0.06360000
H        1.90680000      -1.09670000      -2.99840000
H        0.67180000      -1.66690000       1.21630000
H        1.72350000      -0.24820000       1.22300000
