19
Properties=species:S:1:pos:R:3 gdb_109266=T pbc="F F F"
O       -0.04270000       1.41720000      -0.16640000
C       -0.06060000       0.00340000      -0.10610000
C       -1.46470000      -0.48210000       0.06020000
C       -2.56720000       0.26600000       0.14800000
C       -3.82540000      -0.55080000       0.32920000
C       -3.32590000      -1.99650000       0.19240000
O       -3.39180000      -2.49480000      -1.16540000
C       -1.96310000      -2.67020000      -1.22860000
C       -1.77510000      -1.95560000       0.13260000
H        0.86880000       1.70090000      -0.27860000
H        0.37380000      -0.44270000      -1.01910000
H        0.55120000      -0.37150000       0.73490000
H       -2.56570000       1.34790000       0.10240000
H       -4.29770000      -0.36470000       1.30350000
H       -4.58390000      -0.34660000      -0.43630000
H       -3.79390000      -2.69830000       0.89150000
H       -1.68240000      -3.73250000      -1.22740000
H       -1.52470000      -2.18270000      -2.10790000
H       -1.19550000      -2.50200000       0.88220000
