18
Properties=species:S:1:pos:R:3 gdb_93590=T pbc="F F F"
C       -0.01280000       1.52350000       0.09000000
C        0.02290000       0.00790000      -0.01440000
C        0.74380000      -0.49780000      -1.27130000
C        1.05470000      -1.96160000      -1.16300000
C        0.97820000      -2.60920000       0.00690000
C        0.61730000      -1.87670000       1.28850000
O        0.69170000      -0.47980000       1.14680000
C        1.22150000      -4.01020000       0.11170000
N        1.40720000      -5.14640000       0.24260000
H        1.00440000       1.92320000       0.14510000
H       -0.51150000       1.95780000      -0.78160000
H       -0.55130000       1.83110000       0.98980000
H       -1.00780000      -0.38600000      -0.02340000
H        0.12630000      -0.31430000      -2.15950000
H        1.67390000       0.06830000      -1.42380000
H        1.33970000      -2.49910000      -2.06230000
H       -0.38850000      -2.19240000       1.61730000
H        1.31780000      -2.14980000       2.08420000
