18
Properties=species:S:1:pos:R:3 gdb_104835=T pbc="F F F"
C       -1.19740000       0.04430000      -0.07950000
O       -0.44070000      -1.06570000       0.40430000
C        0.56470000      -0.79750000       1.34460000
C        0.06590000      -0.27560000       2.69870000
O       -0.35900000       1.06900000       2.62880000
C        1.57870000      -1.96430000       1.37020000
O        2.63960000      -1.06320000       0.89910000
C        1.77590000      -0.00230000       0.85220000
N        1.96010000       1.21260000       0.58180000
H       -0.54270000       0.82140000      -0.48950000
H       -1.82780000      -0.35630000      -0.87650000
H       -1.82190000       0.48540000       0.70200000
H       -0.79620000      -0.87140000       3.01760000
H        0.86560000      -0.40920000       3.44640000
H        0.34450000       1.57410000       2.19500000
H        1.83640000      -2.38530000       2.34380000
H        1.36680000      -2.74180000       0.63630000
H        2.93030000       1.40900000       0.32720000
