19
Properties=species:S:1:pos:R:3 gdb_33160=T pbc="F F F"
C       -0.00180000       1.51870000       0.02920000
C       -0.00940000       0.02870000      -0.02910000
C       -0.02160000      -0.84070000      -1.09070000
N        0.00130000      -2.14910000      -0.66670000
C        0.02590000      -2.07650000       0.64190000
N        0.02410000      -0.78470000       1.09440000
C       -0.00620000      -0.37210000       2.48390000
C       -1.43100000      -0.19530000       3.01350000
O       -1.31050000       0.20290000       4.36600000
H        0.88670000       1.91240000       0.53850000
H       -0.00060000       1.91900000      -0.98730000
H       -0.87960000       1.92910000       0.54350000
H       -0.03730000      -0.58810000      -2.14090000
H        0.05610000      -2.91270000       1.32610000
H        0.50800000      -1.12560000       3.08710000
H        0.54150000       0.56680000       2.60080000
H       -1.96000000       0.55700000       2.40860000
H       -1.97550000      -1.14600000       2.90790000
H       -2.19250000       0.30600000       4.73430000
