19
Properties=species:S:1:pos:R:3 gdb_76554=T pbc="F F F"
C       -0.31520000       1.45510000       0.04700000
C        0.00370000      -0.03380000      -0.01480000
C        1.30050000      -0.42430000      -0.76850000
O        1.90580000      -0.95280000       0.43780000
C        0.72010000      -0.67150000       1.17630000
C        0.72360000      -0.30500000       2.63490000
O       -0.19160000       0.63090000       3.12450000
C        0.17940000      -1.65290000       2.17340000
O       -1.22120000      -1.78990000       2.18610000
H        0.55020000       2.02840000       0.39350000
H       -0.59450000       1.82280000      -0.94660000
H       -1.14130000       1.66110000       0.73110000
H       -0.87300000      -0.60360000      -0.33280000
H        1.19450000      -1.19670000      -1.53880000
H        1.87660000       0.41660000      -1.17240000
H        1.67640000      -0.27940000       3.15710000
H       -1.06530000       0.23430000       3.00010000
H        0.75590000      -2.55680000       2.36200000
H       -1.47250000      -2.18090000       3.03080000
