15
Properties=species:S:1:pos:R:3 gdb_26638=T pbc="F F F"
C       -0.00490000       1.52070000       0.07060000
C        0.01900000       0.03280000      -0.00670000
C        0.03570000      -0.80390000      -1.09620000
O        0.03320000      -0.38770000      -2.38770000
C        0.05570000      -2.15830000      -0.62290000
C        0.05030000      -2.09980000       0.76340000
N        0.02850000      -0.79000000       1.11140000
C        0.07650000      -3.29740000      -1.45440000
N        0.09290000      -4.18570000      -2.20060000
H        0.87270000       1.92500000       0.59020000
H       -0.00870000       1.92950000      -0.94190000
H       -0.89770000       1.89680000       0.58550000
H        0.04730000      -1.16010000      -2.96460000
H        0.06050000      -2.89140000       1.49320000
H        0.02010000      -0.45220000       2.05840000
