20
Properties=species:S:1:pos:R:3 gdb_13020=T pbc="F F F"
C       -0.04710000       1.57460000      -0.01710000
C        0.04090000       0.04790000       0.00070000
C        0.79900000      -0.56570000      -1.19870000
C        1.30890000      -1.94200000      -0.70620000
C        1.50710000      -1.76140000       0.79170000
C        2.25300000      -0.52060000       1.25740000
C        0.74340000      -0.54220000       1.22240000
O        0.03460000      -0.56430000       2.42700000
H        0.95090000       2.02790000      -0.01380000
H       -0.57460000       1.93370000      -0.90690000
H       -0.59060000       1.95050000       0.85740000
H       -0.97910000      -0.36020000       0.02330000
H        0.16940000      -0.64560000      -2.08920000
H        1.64330000       0.07790000      -1.47140000
H        0.55000000      -2.71490000      -0.87780000
H        2.21620000      -2.25980000      -1.23130000
H        1.54140000      -2.63250000       1.43600000
H        2.69700000      -0.58310000       2.24490000
H        2.81760000       0.07510000       0.54650000
H        0.09550000       0.31140000       2.82350000
