21
Properties=species:S:1:pos:R:3 gdb_76337=T pbc="F F F"
C       -0.50270000       1.36390000       0.00600000
C       -0.15910000      -0.12200000       0.02500000
C        1.02220000      -0.54830000      -0.91440000
O        1.43360000       0.30550000      -1.94450000
C        1.96940000      -0.63490000       0.32660000
C        2.94430000      -1.78630000       0.44580000
O        2.63580000       0.63510000       0.45310000
C        0.70520000      -0.59390000       1.24560000
O        0.79780000       0.21340000       2.38530000
H        0.37880000       1.99550000       0.15030000
H       -0.95130000       1.63870000      -0.95260000
H       -1.21130000       1.60100000       0.80450000
H       -1.07100000      -0.70870000      -0.12120000
H        0.85110000      -1.53470000      -1.35700000
H        1.94760000       1.00160000      -1.51340000
H        3.70470000      -1.74030000      -0.34350000
H        3.44520000      -1.77710000       1.42150000
H        2.42320000      -2.74290000       0.34890000
H        3.57730000       0.48060000       0.56980000
H        0.42040000      -1.59710000       1.57810000
H        1.41570000       0.91960000       2.15280000
