23
Properties=species:S:1:pos:R:3 gdb_58775=T pbc="F F F"
C        0.13500000       1.48970000       0.15920000
C       -0.10220000      -0.02130000      -0.00670000
C       -1.60290000      -0.35280000       0.02460000
C        0.58000000      -0.54110000      -1.24990000
C        2.05160000      -0.92970000      -1.29970000
C        1.00400000      -1.92710000      -1.70260000
C        0.83190000      -3.31660000      -1.18170000
O        0.61530000      -1.67830000      -3.06300000
C        0.11920000      -0.36270000      -2.69760000
H        1.20410000       1.72200000       0.17760000
H       -0.31500000       2.04940000      -0.66900000
H       -0.31100000       1.85870000       1.08860000
H        0.36680000      -0.52720000       0.84900000
H       -2.14190000       0.15710000      -0.78150000
H       -1.77750000      -1.42780000      -0.08380000
H       -2.05030000      -0.03050000       0.97050000
H        2.71680000      -0.51630000      -2.05420000
H        2.50490000      -1.08910000      -0.32500000
H        1.07400000      -3.36090000      -0.11590000
H       -0.19530000      -3.66690000      -1.32410000
H        1.50090000      -4.00780000      -1.70740000
H       -0.96880000      -0.31890000      -2.82110000
H        0.58710000       0.43680000      -3.28530000
