14
Properties=species:S:1:pos:R:3 gdb_129691=T pbc="F F F"
N       -0.41690000       1.31000000       0.36660000
C       -0.13960000      -0.04020000       0.10120000
C       -1.03130000      -1.00530000      -0.32050000
N       -0.35660000      -2.18650000      -0.38300000
N        0.92970000      -2.05490000      -0.02950000
C        1.06580000      -0.76360000       0.27110000
O       -2.34480000      -0.90990000      -0.69580000
C       -3.26560000      -0.77920000       0.31840000
O       -4.42390000      -0.64660000       0.09300000
H        0.42460000       1.87020000       0.40730000
H       -1.04690000       1.71730000      -0.31470000
H       -0.70690000      -3.07110000      -0.71050000
H        2.02300000      -0.38620000       0.60100000
H       -2.78680000      -0.81370000       1.31210000
