16
Properties=species:S:1:pos:R:3 gdb_78572=T pbc="F F F"
C        0.03030000       1.54100000      -0.00760000
N        0.05550000       0.08200000       0.01080000
C        0.74400000      -0.61130000      -1.07880000
C        2.28670000      -0.58890000      -0.81750000
C        2.43270000      -0.03220000       0.55890000
O        3.35050000       0.40140000       1.19920000
C        1.01800000      -0.56940000       0.94170000
C        1.30450000      -1.64300000      -0.19650000
O        1.28650000      -2.99900000      -0.25980000
H        1.01910000       2.00550000      -0.15550000
H       -0.63170000       1.87460000      -0.81250000
H       -0.37980000       1.90170000       0.94030000
H        0.36180000      -0.68150000      -2.09010000
H        3.01890000      -0.73150000      -1.59990000
H        0.71950000      -0.72540000       1.97620000
H        2.07430000      -3.34830000       0.17370000
