22
Properties=species:S:1:pos:R:3 gdb_59587=T pbc="F F F"
C       -1.29490000      -0.57770000      -0.26150000
C        0.08310000       0.02150000       0.05440000
C        0.02470000       1.55430000       0.07500000
C        0.61260000      -0.53700000       1.37810000
C        0.94790000      -2.05490000       1.38760000
N        2.36440000      -2.14060000       1.76430000
C        2.77260000      -0.94540000       1.90010000
C        4.15360000      -0.51740000       2.26230000
O        1.89040000       0.07430000       1.70330000
H       -2.02450000      -0.30610000       0.51080000
H       -1.66920000      -0.19710000      -1.21660000
H       -1.26800000      -1.66980000      -0.32710000
H        0.78850000      -0.28930000      -0.72950000
H       -0.67880000       1.90780000       0.83860000
H        1.00470000       1.98250000       0.29640000
H       -0.31320000       1.94230000      -0.89140000
H       -0.07850000      -0.26690000       2.18700000
H        0.33300000      -2.61700000       2.09770000
H        0.80190000      -2.51440000       0.40200000
H        4.78580000      -1.39430000       2.39720000
H        4.57160000       0.12040000       1.47700000
H        4.13880000       0.07150000       3.18480000
