21
Properties=species:S:1:pos:R:3 gdb_103644=T pbc="F F F"
C        0.17170000       1.50660000      -0.12330000
O        0.48780000       0.12980000      -0.18800000
C        0.69450000      -0.52750000       1.05500000
C        2.01980000      -0.13630000       1.69530000
C       -0.51650000      -0.56850000       2.03740000
C       -0.35110000      -2.11840000       2.12150000
O       -1.49120000      -2.91730000       2.02460000
C        0.53950000      -2.06630000       0.84090000
O       -0.25170000      -2.37160000      -0.28900000
H        1.01460000       2.10460000       0.24730000
H       -0.06050000       1.82640000      -1.14170000
H       -0.70080000       1.69520000       0.51650000
H        2.01420000       0.90520000       2.03240000
H        2.22160000      -0.76090000       2.57130000
H        2.83900000      -0.26930000       0.98200000
H       -0.44110000       0.00650000       2.96320000
H       -1.45310000      -0.32040000       1.53170000
H        0.20770000      -2.42510000       3.01050000
H       -1.68490000      -2.95570000       1.07560000
H        1.46110000      -2.66010000       0.82850000
H       -0.28000000      -1.55840000      -0.81560000
