16
Properties=species:S:1:pos:R:3 gdb_9333=T pbc="F F F"
O        0.01670000       1.42490000       0.00920000
C        0.04700000       0.00830000       0.00160000
C       -1.39420000      -0.48370000       0.01270000
C       -1.49220000      -2.00610000       0.00580000
C       -2.91480000      -2.52500000       0.01670000
O       -3.89800000      -1.83010000       0.02990000
C       -3.05440000      -4.06970000       0.00970000
O       -4.11820000      -4.62210000       0.01660000
H        0.92220000       1.74830000       0.00210000
H        0.56640000      -0.37700000      -0.89210000
H        0.58320000      -0.38620000       0.88130000
H       -1.90410000      -0.08320000       0.89450000
H       -1.92070000      -0.07410000      -0.85520000
H       -0.98680000      -2.43980000      -0.87170000
H       -0.97020000      -2.44880000       0.86900000
H       -2.09410000      -4.63470000      -0.00230000
