18
Properties=species:S:1:pos:R:3 gdb_80632=T pbc="F F F"
C       -0.07200000       1.53890000      -0.09250000
C        0.03650000       0.01900000      -0.03190000
C        0.96260000      -0.57610000      -1.12150000
C        1.18620000      -2.03970000      -0.68900000
C        1.96610000      -1.26890000       0.39550000
O        2.29410000      -0.26310000      -0.59900000
C        0.83080000      -0.57160000       1.20760000
C        1.33230000       0.41330000       2.15520000
N        1.72980000       1.18060000       2.92320000
H        0.92070000       1.99510000      -0.12290000
H       -0.62100000       1.84210000      -0.99010000
H       -0.60090000       1.93840000       0.77710000
H       -0.95980000      -0.43150000      -0.07650000
H        0.80420000      -0.26480000      -2.15370000
H        0.32860000      -2.65480000      -0.40470000
H        1.85740000      -2.57000000      -1.36400000
H        2.81990000      -1.66360000       0.94400000
H        0.23230000      -1.30050000       1.76190000
