12
Properties=species:S:1:pos:R:3 gdb_130020=T pbc="F F F"
N        0.04640000       1.31030000       0.13890000
C       -0.05960000      -0.03220000       0.05270000
N       -1.14910000      -0.74060000       0.02150000
C       -0.65830000      -2.03940000      -0.00520000
N       -1.14410000      -3.25490000      -0.04240000
O        0.01920000      -4.05890000      -0.05700000
C        1.14850000      -3.29780000      -0.02860000
C        0.75350000      -2.01220000       0.00520000
O        1.15720000      -0.70340000       0.04310000
H        0.92210000       1.72880000      -0.12810000
H       -0.79250000       1.83280000      -0.05330000
H        2.08290000      -3.83210000      -0.03670000
