16
Properties=species:S:1:pos:R:3 gdb_6726=T pbc="F F F"
N       -0.06670000       0.80090000      -0.67690000
C       -0.60260000      -0.40100000      -0.45930000
N       -0.95600000      -0.66010000       0.79210000
H       -0.78760000       0.00470000       1.54660000
C       -1.52120000      -1.94590000       1.22030000
C       -2.45350000      -2.60980000       0.19300000
C       -1.78480000      -3.45050000      -0.90990000
O       -0.90480000      -2.82640000      -1.68140000
O       -2.07260000      -4.61410000      -1.06010000
H        0.21420000       1.05200000      -1.60820000
H        0.08500000       1.50530000       0.04080000
H       -0.79070000      -1.85570000      -1.38290000
H       -0.71440000      -2.63520000       1.50120000
H       -2.09600000      -1.74390000       2.12960000
H       -3.11380000      -3.29780000       0.72410000
H       -3.07630000      -1.83550000      -0.27030000
