13
Properties=species:S:1:pos:R:3 gdb_1206=T pbc="F F F"
C       -0.16250000       1.42280000       0.01160000
C        0.09950000      -0.05400000       0.00110000
N        1.26700000      -0.54080000      -0.01280000
O       -1.09860000      -0.72710000       0.00880000
C       -1.04360000      -2.14160000       0.00050000
C       -2.41390000      -2.65470000       0.01100000
N       -3.48040000      -3.09580000       0.01910000
H        0.78480000       1.95930000       0.00570000
H       -0.75660000       1.70600000      -0.86250000
H       -0.74020000       1.69640000       0.89960000
H        1.29840000      -1.55850000      -0.01870000
H       -0.52830000      -2.51510000      -0.89520000
H       -0.51100000      -2.52490000       0.88180000
