14
Properties=species:S:1:pos:R:3 gdb_31393=T pbc="F F F"
O        0.17430000       1.36130000      -0.08040000
C        0.05030000      -0.02760000      -0.10260000
C       -1.39070000      -0.46240000      -0.02790000
N       -2.32940000       0.39440000       0.04700000
C       -3.68440000      -0.03110000       0.11680000
O       -4.58990000       0.76570000       0.18690000
C       -3.86630000      -1.48900000       0.09600000
C       -2.80220000      -2.29330000       0.01460000
O       -1.52920000      -1.81220000      -0.05070000
H       -0.72790000       1.71300000      -0.01870000
H        0.48540000      -0.45480000      -1.02040000
H        0.58770000      -0.49260000       0.73960000
H       -4.86840000      -1.89370000       0.14690000
H       -2.81630000      -3.37550000      -0.00860000
