14
Properties=species:S:1:pos:R:3 gdb_28947=T pbc="F F F"
O        0.11490000       1.34370000       0.21890000
C        0.08070000       0.00970000      -0.00480000
C        0.08600000      -0.80460000      -1.10360000
N        0.04660000      -2.12690000      -0.69890000
C        0.01650000      -2.10610000       0.60430000
N        0.04350000      -0.81650000       1.09610000
C       -0.00660000      -0.38540000       2.47590000
C       -1.36760000      -0.07190000       2.94040000
N       -2.43190000       0.17270000       3.31520000
H        0.10080000       1.80350000      -0.62620000
H        0.12010000      -0.52540000      -2.14500000
H       -0.01850000      -2.96040000       1.26390000
H        0.41040000      -1.17500000       3.10750000
H        0.61850000       0.50360000       2.59930000
