16
Properties=species:S:1:pos:R:3 gdb_26977=T pbc="F F F"
C       -0.02500000       1.43370000      -0.25700000
C       -0.09920000      -0.03940000      -0.06780000
C       -1.12050000      -0.94680000      -0.04320000
C       -2.60100000      -0.69390000      -0.19420000
C       -2.95210000       0.13680000      -1.34930000
N       -3.22860000       0.80390000      -2.25140000
C       -0.51870000      -2.22830000       0.20010000
C        0.81390000      -2.00570000       0.30440000
O        1.08390000      -0.68350000       0.14270000
H        0.75350000       1.69110000      -0.98220000
H       -0.97490000       1.82180000      -0.62840000
H        0.21600000       1.94850000       0.68090000
H       -3.12450000      -1.65030000      -0.29820000
H       -3.02060000      -0.21640000       0.70080000
H       -1.02430000      -3.17850000       0.27830000
H        1.66570000      -2.64210000       0.47630000
