16
Properties=species:S:1:pos:R:3 gdb_34941=T pbc="F F F"
N        0.04170000      -1.16500000       0.02110000
C        0.05360000      -0.00890000       0.04720000
C        0.05630000       1.42810000       0.06780000
C        0.57720000       2.23160000       1.24450000
O        1.61100000       1.55100000       1.93610000
C        2.43080000       1.60370000       0.74530000
C        3.87730000       1.95170000       0.82280000
C        3.42910000       0.55190000       0.41800000
C        1.33520000       2.26310000      -0.05350000
H       -0.79640000       1.88520000      -0.42650000
H       -0.01740000       2.95850000       1.78420000
H        4.29160000       2.60700000       0.06350000
H        4.29610000       2.07840000       1.81490000
H        3.55220000      -0.24260000       1.14500000
H        3.53760000       0.24330000      -0.61580000
H        1.45070000       3.02880000      -0.80800000
