16
Properties=species:S:1:pos:R:3 gdb_22569=T pbc="F F F"
O       -0.14120000       1.31960000       0.56700000
N        0.00760000      -0.07930000       0.52420000
C       -1.06780000      -0.63230000       0.14800000
C       -2.45320000      -0.16410000      -0.28100000
O       -2.48000000       0.41040000      -1.57180000
C       -2.85860000      -1.68410000      -0.34400000
O       -3.49570000      -2.14290000      -1.48450000
C       -1.35210000      -2.09600000      -0.14430000
O       -0.82960000      -2.52050000      -1.39240000
H        0.71940000       1.61250000       0.88710000
H       -2.99530000       0.44660000       0.45240000
H       -1.94380000       1.21050000      -1.53840000
H       -3.46830000      -1.96260000       0.51900000
H       -2.89650000      -1.96880000      -2.22140000
H       -1.13190000      -2.81670000       0.65270000
H        0.11040000      -2.31220000      -1.40500000
