15
Properties=species:S:1:pos:R:3 gdb_28543=T pbc="F F F"
O        0.00580000       1.37960000      -0.13690000
C        0.03580000       0.01590000      -0.04750000
C       -0.06100000      -0.71200000      -1.23040000
C       -0.03430000      -2.10560000      -1.18150000
C        0.08740000      -2.76840000       0.02990000
O        0.12310000      -4.13790000       0.18270000
C        0.18470000      -2.03300000       1.21900000
O        0.30450000      -2.66920000       2.41390000
C        0.15860000      -0.64450000       1.17730000
H        0.08080000       1.75250000       0.74700000
H       -0.15580000      -0.18640000      -2.17230000
H       -0.10960000      -2.67900000      -2.10180000
H        0.05190000      -4.56080000      -0.67760000
H        0.30270000      -3.61820000       2.23430000
H        0.23540000      -0.09520000       2.11070000
