23
Properties=species:S:1:pos:R:3 gdb_114889=T pbc="F F F"
C        0.04950000       1.48220000      -0.28450000
C        0.01770000      -0.04250000      -0.13380000
C       -1.39110000      -0.58000000       0.09820000
C       -2.38180000      -0.52910000      -1.10390000
C       -2.67690000      -2.04590000      -0.94260000
C       -2.10350000      -2.94830000      -2.03640000
O       -0.69680000      -2.96940000      -1.81300000
C       -0.52740000      -3.03700000      -0.39970000
C       -1.60430000      -2.12650000       0.20060000
H        1.06620000       1.84360000      -0.46740000
H       -0.57480000       1.81080000      -1.12250000
H       -0.32390000       1.97760000       0.61890000
H        0.43690000      -0.50950000      -1.03350000
H        0.66530000      -0.33950000       0.70240000
H       -1.81920000      -0.08620000       0.97800000
H       -3.24380000       0.13010000      -0.97740000
H       -1.89960000      -0.28470000      -2.05620000
H       -3.70510000      -2.29860000      -0.67910000
H       -2.52040000      -3.96660000      -1.95770000
H       -2.27400000      -2.57980000      -3.05240000
H       -0.67460000      -4.07110000      -0.04620000
H        0.50000000      -2.74070000      -0.17420000
H       -1.93420000      -2.48030000       1.17930000
