18
Properties=species:S:1:pos:R:3 gdb_47943=T pbc="F F F"
O       -0.00680000      -0.02000000      -0.27120000
C       -0.02110000       1.16050000      -0.03360000
N       -1.12010000       1.91310000       0.23050000
C       -1.14340000       3.37240000       0.19980000
C       -0.92390000       4.00600000      -1.18770000
C        0.50810000       4.01360000      -1.74180000
O        0.98050000       2.72740000      -2.14070000
C        1.78350000       2.07670000      -1.20600000
O        1.11910000       1.94420000       0.04050000
H       -1.99280000       1.41440000       0.15870000
H       -2.12700000       3.67290000       0.57280000
H       -0.40300000       3.75460000       0.90850000
H       -1.57990000       3.51780000      -1.91810000
H       -1.24420000       5.05500000      -1.12700000
H        0.52480000       4.63170000      -2.64590000
H        1.19820000       4.46480000      -1.01460000
H        2.01960000       1.09660000      -1.62940000
H        2.69510000       2.64240000      -0.97420000
