15
Properties=species:S:1:pos:R:3 gdb_35652=T pbc="F F F"
C       -0.23320000      -1.25630000      -0.14170000
C       -0.06860000      -0.07010000      -0.04770000
C        0.09180000       1.37130000       0.09080000
C       -0.52220000       1.93990000       1.40960000
N        0.42640000       3.01790000       1.70540000
C        1.59750000       2.69330000       1.01970000
N        1.51260000       1.79990000       0.10160000
C        2.79930000       3.39390000       1.33980000
C        3.79240000       3.99480000       1.65150000
H       -0.36410000      -2.30590000      -0.23580000
H       -0.38500000       1.86060000      -0.77150000
H       -1.53670000       2.31890000       1.26970000
H       -0.53240000       1.17390000       2.19530000
H        0.52560000       3.32030000       2.66420000
H        4.68130000       4.51830000       1.90570000
