19
Properties=species:S:1:pos:R:3 gdb_34674=T pbc="F F F"
C        0.06920000      -1.17350000       0.03170000
C        0.01200000       0.02820000       0.00990000
C       -0.04990000       1.46200000      -0.01180000
C        0.41700000       2.20640000       1.23610000
C        1.27210000       2.22450000      -0.00820000
C        1.29070000       3.73750000      -0.30450000
C        1.56900000       4.28620000       1.14200000
C        0.12650000       3.71280000       1.38950000
C       -0.16960000       4.20250000      -0.05410000
H        0.11360000      -2.23400000       0.04670000
H       -0.88540000       1.85450000      -0.58020000
H        0.67530000       1.62230000       2.11080000
H        2.18920000       1.65440000      -0.09200000
H        1.85760000       4.07220000      -1.17300000
H        2.39420000       3.83870000       1.70260000
H        1.61620000       5.37750000       1.19030000
H       -0.48560000       4.02250000       2.23640000
H       -0.24860000       5.29070000      -0.09250000
H       -0.99150000       3.76910000      -0.62530000
