15
Properties=species:S:1:pos:R:3 gdb_32351=T pbc="F F F"
C        0.03290000       1.46060000       0.00070000
N        0.01990000       0.01660000       0.14280000
C       -1.19960000      -0.65260000       0.05200000
C       -2.42710000      -0.07340000       0.05410000
O       -3.55610000      -0.80600000       0.04180000
C       -3.53290000      -2.21200000      -0.01290000
O       -4.58500000      -2.77910000      -0.04140000
N       -2.28580000      -2.82300000      -0.02680000
C       -1.22180000      -2.08960000       0.01200000
H        1.06570000       1.81240000       0.03040000
H       -0.43370000       1.81360000      -0.93350000
H       -0.50130000       1.92080000       0.83970000
H        0.75890000      -0.44440000      -0.36930000
H       -2.62770000       0.98970000       0.08230000
H       -0.26360000      -2.61610000       0.01230000
