17
Properties=species:S:1:pos:R:3 gdb_128362=T pbc="F F F"
C        0.31490000       1.37790000       0.19850000
N       -0.19670000       0.09120000      -0.24020000
C        0.48740000      -0.63620000      -1.18660000
N        0.37080000      -1.95020000      -1.23350000
O        1.13420000      -2.34520000      -2.34700000
C        1.67950000      -1.26130000      -2.91160000
C        2.53940000      -1.47300000      -4.12060000
O        3.43070000      -0.39650000      -4.33510000
C        1.32740000      -0.13870000      -2.23260000
H        1.31370000       1.32590000       0.65780000
H        0.36350000       2.07060000      -0.64720000
H       -0.37960000       1.80120000       0.92760000
H       -0.57730000      -0.49100000       0.49220000
H        3.05480000      -2.44070000      -4.02780000
H        1.91580000      -1.53010000      -5.02020000
H        4.00310000      -0.33350000      -3.56300000
H        1.60200000       0.87650000      -2.45940000
