17
Properties=species:S:1:pos:R:3 gdb_24192=T pbc="F F F"
C       -0.03380000       1.58290000      -0.05430000
C        1.52920000       1.35460000      -0.02380000
C        1.19310000       0.17510000       0.97220000
C       -0.06360000       0.00880000       0.03430000
C        0.63190000      -0.34600000      -1.28360000
C        1.65680000       0.53950000      -1.29410000
O        2.43600000       0.42580000      -2.38160000
C        1.86970000      -0.59970000      -3.11100000
C        0.76210000      -1.10680000      -2.48300000
H       -0.40610000       2.07050000       0.85270000
H       -0.45610000       2.04630000      -0.94850000
H        2.23860000       2.14460000       0.21180000
H        1.89930000      -0.65640000       1.02220000
H        0.93550000       0.53110000       1.97510000
H       -0.95180000      -0.53400000       0.35150000
H        2.37080000      -0.83620000      -4.03420000
H        0.14860000      -1.91280000      -2.85530000
