17
Properties=species:S:1:pos:R:3 gdb_97279=T pbc="F F F"
C       -0.66840000       1.33760000      -0.38300000
N       -0.11930000       0.01950000      -0.13430000
C        0.22800000      -0.66100000      -1.13770000
N        0.80870000      -1.95200000      -1.00670000
C        1.09630000      -2.41570000       0.27090000
O        1.57350000      -3.49720000       0.55220000
C        1.02250000      -2.69490000      -2.21840000
N        1.83650000      -3.78220000      -2.07530000
N        0.48390000      -2.24350000      -3.28520000
H       -0.04980000       2.09010000       0.11870000
H       -0.73670000       1.59380000      -1.45100000
H       -1.66910000       1.40200000       0.05820000
H        0.13290000      -0.36800000      -2.18310000
H        0.82620000      -1.66370000       1.02130000
H        1.96480000      -4.14100000      -1.13490000
H        1.82430000      -4.44180000      -2.83530000
H        0.72150000      -2.82320000      -4.08680000
