17
Properties=species:S:1:pos:R:3 gdb_9887=T pbc="F F F"
C       -0.88390000       1.44590000      -0.16860000
C       -0.24320000       0.07850000      -0.12420000
C       -1.02260000      -1.01970000       0.57880000
N       -1.11910000      -0.76850000       2.00640000
C       -2.30120000      -0.62590000       2.66330000
O       -3.39960000      -0.70220000       2.15440000
C        0.76990000      -0.30310000      -1.11760000
O        1.15950000       0.06560000       0.20860000
H       -0.19940000       2.17380000      -0.61000000
H       -1.80480000       1.42170000      -0.76020000
H       -1.14360000       1.78300000       0.83930000
H       -2.04690000      -1.08050000       0.20280000
H       -0.53080000      -1.98310000       0.40280000
H       -0.25880000      -0.66560000       2.52200000
H       -2.14740000      -0.43040000       3.74300000
H        0.91580000      -1.35180000      -1.37430000
H        1.04560000       0.40470000      -1.89800000
