22
Properties=species:S:1:pos:R:3 gdb_63469=T pbc="F F F"
C       -0.00370000       1.32770000      -0.46140000
C        0.14410000      -0.08330000       0.06510000
O       -0.82620000      -0.96030000      -0.45370000
C        1.50910000      -0.67400000       0.35270000
C        0.53790000      -0.39030000       1.49290000
C        0.87110000       0.75060000       2.44440000
C       -0.15190000      -1.52050000       2.20940000
C       -0.02120000      -2.94870000       1.86320000
N        0.62530000      -2.42970000       3.08490000
H        0.75710000       2.00340000      -0.06590000
H        0.09490000       1.33100000      -1.55450000
H       -0.99150000       1.73000000      -0.21460000
H       -0.67340000      -1.03720000      -1.40210000
H        1.67320000      -1.69990000       0.04180000
H        2.38250000      -0.03440000       0.27020000
H        1.43850000       1.54910000       1.96110000
H       -0.04030000       1.19120000       2.86430000
H        1.47120000       0.37840000       3.28160000
H       -1.08970000      -1.21390000       2.67110000
H       -0.85990000      -3.61700000       2.03680000
H        0.60330000      -3.22970000       1.02210000
H        1.61570000      -2.29020000       2.88950000
