16
Properties=species:S:1:pos:R:3 gdb_27416=T pbc="F F F"
C        0.04230000       1.43690000       0.28400000
C       -0.09730000      -0.01970000      -0.07040000
N       -1.25380000      -0.56720000       0.02050000
C       -1.52530000      -1.91730000      -0.22650000
N       -2.55310000      -2.33570000      -0.85580000
C       -0.63550000      -2.91120000       0.41120000
C        0.70690000      -2.83500000       0.37690000
C        1.44510000      -1.78280000      -0.30220000
N        1.10390000      -0.56550000      -0.53640000
H        0.35350000       2.00330000      -0.59970000
H       -0.90110000       1.82740000       0.66430000
H        0.83010000       1.56740000       1.03360000
H       -3.07920000      -1.53450000      -1.21470000
H       -1.12520000      -3.77710000       0.84750000
H        1.29880000      -3.65520000       0.77420000
H        2.43930000      -2.06770000      -0.65840000
