19
Properties=species:S:1:pos:R:3 gdb_10760=T pbc="F F F"
C       -0.11410000       1.64460000      -0.02930000
C        0.02190000       0.11530000      -0.03930000
O        0.74360000      -0.32390000       1.10930000
C       -1.35960000      -0.56130000      -0.01820000
O       -1.93690000      -0.27840000       1.25580000
C        0.78790000      -0.35150000      -1.26930000
C        2.26710000      -0.40260000      -1.26620000
N        1.47420000      -1.64980000      -1.25800000
H        0.87340000       2.10100000       0.07180000
H       -0.57170000       2.00630000      -0.95650000
H       -0.73950000       1.96550000       0.80810000
H        0.09430000      -0.35650000       1.82400000
H       -1.98740000      -0.17530000      -0.83390000
H       -1.23100000      -1.64260000      -0.15960000
H       -2.67380000      -0.87750000       1.40130000
H        0.27960000      -0.12760000      -2.20590000
H        2.81790000      -0.21220000      -2.18290000
H        2.77550000      -0.12080000      -0.34970000
H        1.45720000      -1.98680000      -0.29600000
