17
Properties=species:S:1:pos:R:3 gdb_61786=T pbc="F F F"
C       -0.01670000       1.68210000      -0.11600000
C        0.04680000       0.16290000      -0.03560000
O        0.76470000      -0.18540000       1.15330000
C        1.81180000      -1.04160000       1.06400000
O        2.46190000      -1.35130000       2.01250000
C       -1.36200000      -0.49740000       0.05090000
N       -2.30410000      -0.16250000      -1.01020000
C       -1.19770000      -1.96010000       0.09850000
N       -1.02290000      -3.10180000       0.10190000
H        0.99520000       2.09400000      -0.12340000
H       -0.52300000       2.00780000      -1.02800000
H       -0.54470000       2.09270000       0.75040000
H        0.56950000      -0.24250000      -0.91340000
H        1.98730000      -1.39740000       0.03160000
H       -1.80080000      -0.18390000       1.00620000
H       -2.52930000       0.82520000      -0.98780000
H       -1.92170000      -0.38070000      -1.92490000
