14
Properties=species:S:1:pos:R:3 gdb_53891=T pbc="F F F"
N       -0.03450000       1.27900000      -0.04450000
C        0.06810000      -0.06670000       0.04510000
O        1.09120000      -0.71170000       0.07140000
C       -1.33600000      -0.71010000       0.11260000
O       -2.36370000      -0.07710000       0.08500000
O       -1.25470000      -2.03630000       0.20180000
C       -2.50010000      -2.74020000       0.26290000
C       -2.19100000      -4.22370000       0.16540000
O       -3.03870000      -5.06720000       0.27560000
H        0.80080000       1.83680000      -0.09750000
H       -0.94500000       1.70790000      -0.05890000
H       -3.02230000      -2.52050000       1.20010000
H       -3.15510000      -2.43360000      -0.56000000
H       -1.12190000      -4.45950000      -0.02160000
