15
Properties=species:S:1:pos:R:3 gdb_55248=T pbc="F F F"
N        0.07660000       1.21010000      -0.35040000
C        0.06390000      -0.08250000       0.07610000
O        1.05720000      -0.67640000       0.44190000
C       -1.32730000      -0.75060000       0.08730000
C       -2.00340000      -0.89140000      -1.30280000
O       -1.74040000      -2.23060000      -1.70650000
C       -1.28900000      -2.96450000      -0.63890000
O       -1.01930000      -4.12650000      -0.70700000
N       -1.23920000      -2.13710000       0.47690000
H        0.94700000       1.71610000      -0.31670000
H       -0.76430000       1.72020000      -0.55820000
H       -1.97070000      -0.17570000       0.76530000
H       -3.08590000      -0.74060000      -1.23180000
H       -1.59290000      -0.20980000      -2.05160000
H       -0.51340000      -2.37710000       1.13910000
