20
Properties=species:S:1:pos:R:3 gdb_64425=T pbc="F F F"
C       -0.07020000       1.57520000       0.02940000
C        0.03940000       0.05740000      -0.01310000
O       -1.28790000      -0.46880000      -0.02830000
C        0.77520000      -0.43150000      -1.26980000
O        0.82550000      -1.85460000      -1.25320000
C        1.75210000      -2.34910000      -0.29300000
C        1.59360000      -1.71000000       1.07980000
N        2.21080000      -0.37860000       1.25200000
C        0.74620000      -0.49480000       1.21930000
H        0.92180000       2.02730000       0.11250000
H       -0.56070000       1.94980000      -0.87420000
H       -0.67010000       1.88430000       0.89070000
H       -1.19740000      -1.39040000      -0.30500000
H        0.20050000      -0.15160000      -2.15670000
H        1.78380000      -0.00260000      -1.33360000
H        1.56550000      -3.42530000      -0.23120000
H        2.78130000      -2.19500000      -0.65140000
H        1.64140000      -2.39410000       1.92340000
H        2.53570000      -0.25940000       2.20760000
H        0.18960000      -0.35930000       2.14420000
