19
Properties=species:S:1:pos:R:3 gdb_41285=T pbc="F F F"
C        0.08650000       1.53010000      -0.10860000
O        1.55110000       1.51010000       0.00810000
C        1.51060000       0.19940000       0.58370000
C        1.74780000      -0.28790000       1.99880000
C        0.98910000      -1.53400000       1.42740000
C       -0.45710000      -0.95740000       1.22650000
C        0.02980000       0.01820000       0.15130000
C        0.51740000      -0.92780000      -0.99300000
C        1.65260000      -1.23390000      -0.01310000
H       -0.35630000       2.15690000       0.67580000
H       -0.23090000       1.88720000      -1.09330000
H        2.80160000      -0.50430000       2.19820000
H        1.30110000       0.24100000       2.84640000
H        1.11220000      -2.51370000       1.88640000
H       -1.19380000      -1.68470000       0.87480000
H       -0.83240000      -0.49090000       2.14130000
H       -0.15500000      -1.72920000      -1.31300000
H        0.87800000      -0.37240000      -1.86190000
H        2.57810000      -1.76410000      -0.24450000
