15
Properties=species:S:1:pos:R:3 gdb_11843=T pbc="F F F"
N       -0.61390000      -1.03280000      -0.65120000
C       -0.28250000       0.02970000      -0.34060000
C        0.11470000       1.38180000       0.06080000
C       -0.14400000       1.76140000       1.54470000
C        1.37450000       1.87780000       1.61150000
C        2.24380000       2.90000000       2.25700000
C        2.33680000       1.43010000       2.65530000
O        1.53940000       1.51620000       0.22920000
H       -0.27170000       2.09720000      -0.67360000
H       -0.70040000       2.68980000       1.67860000
H       -0.58590000       0.96980000       2.15010000
H        3.05360000       3.30560000       1.66000000
H        1.79270000       3.60220000       2.95090000
H        1.94890000       1.12450000       3.62170000
H        3.20570000       0.87650000       2.31650000
