14
Properties=species:S:1:pos:R:3 gdb_16102=T pbc="F F F"
N        0.09370000      -1.13990000       0.02950000
C        0.05710000       0.01540000       0.01420000
C       -0.03890000       1.45440000      -0.01420000
C        0.37040000       2.23640000      -1.22870000
N        1.21570000       2.26330000      -0.04170000
C        0.98130000       3.41000000       0.86880000
C       -0.43840000       3.26700000       1.36840000
C       -0.99810000       2.15500000       0.89710000
H        0.80830000       1.71920000      -2.07740000
H       -0.24680000       3.10030000      -1.46670000
H        1.70930000       3.36860000       1.68840000
H        1.15580000       4.35010000       0.33150000
H       -0.91810000       3.99550000       2.01060000
H       -1.99110000       1.77830000       1.10170000
