16
Properties=species:S:1:pos:R:3 gdb_105575=T pbc="F F F"
C       -0.02480000       1.45470000       0.06890000
O       -0.03060000       0.03440000      -0.06150000
C       -1.30550000      -0.55410000      -0.02840000
C       -1.18530000      -2.08890000       0.16170000
O       -1.82100000      -1.99020000       1.47270000
C       -1.94580000      -0.62540000       1.37340000
N       -2.38980000       0.22780000       2.17430000
C       -2.19240000      -0.10910000      -1.09760000
C       -2.92060000       0.24490000      -1.98530000
H        1.02540000       1.75170000       0.05960000
H       -0.54600000       1.93060000      -0.77060000
H       -0.49190000       1.76810000       1.00860000
H       -1.77060000      -2.70840000      -0.51820000
H       -0.15200000      -2.42920000       0.24240000
H       -2.69650000      -0.19960000       3.05050000
H       -3.56930000       0.56450000      -2.76380000
