18
Properties=species:S:1:pos:R:3 gdb_70414=T pbc="F F F"
C        0.10960000       1.51700000       0.05430000
C        0.20170000       0.02560000      -0.01540000
N       -0.80570000      -0.87260000       0.60110000
C        0.63750000      -1.00860000       0.95640000
C        1.26280000      -1.87490000      -0.12880000
C        0.71930000      -0.85380000      -1.20560000
O       -0.27140000      -1.29110000      -2.08970000
C        1.80030000      -0.18390000      -2.02420000
O        2.89410000       0.09760000      -1.60350000
H        1.06260000       1.97830000      -0.22180000
H       -0.66340000       1.89820000      -0.62280000
H       -0.13980000       1.84360000       1.06980000
H       -1.26740000      -0.34850000       1.34350000
H        0.95980000      -0.88820000       1.98320000
H        2.35400000      -1.86240000      -0.10250000
H        0.88180000      -2.89390000      -0.22720000
H       -1.02500000      -1.52260000      -1.52660000
H        1.48490000       0.04940000      -3.06420000
