17
Properties=species:S:1:pos:R:3 gdb_29704=T pbc="F F F"
C       -0.13540000       1.45220000       0.04040000
N        0.02050000       0.01350000      -0.00260000
C        0.05830000      -0.78460000      -1.14500000
N       -0.05150000      -0.17160000      -2.41460000
C        0.23820000      -2.09150000      -0.74620000
C        0.29850000      -2.09390000       0.67780000
O        0.52870000      -3.13460000       1.55850000
C        0.15550000      -0.79310000       1.09190000
O        0.15010000      -0.24840000       2.33690000
H        0.66930000       1.90690000       0.62530000
H       -0.09790000       1.81710000      -0.98580000
H       -1.09180000       1.73550000       0.49310000
H        0.69730000      -0.45810000      -3.03450000
H       -0.92980000      -0.38710000      -2.87540000
H        0.32060000      -2.94720000      -1.39920000
H       -0.15790000      -3.79850000       1.43710000
H        0.29390000      -0.98000000       2.94920000
