16
Properties=species:S:1:pos:R:3 gdb_126989=T pbc="F F F"
C       -0.00340000       1.49400000       0.06010000
C        0.05390000      -0.01930000       0.02350000
O       -1.31090000      -0.49950000       0.02680000
C       -1.49380000      -1.80600000      -0.00170000
C       -2.69610000      -2.49040000      -0.00460000
N       -3.99020000      -1.95440000       0.02180000
N       -2.35440000      -3.81820000      -0.03940000
N       -1.13150000      -4.02550000      -0.05690000
O       -0.47870000      -2.63400000      -0.03110000
H        1.01230000       1.89970000       0.05820000
H       -0.53470000       1.88370000      -0.81220000
H       -0.51470000       1.84170000       0.96150000
H        0.55600000      -0.38820000      -0.87680000
H        0.57520000      -0.43030000       0.89420000
H       -4.52950000      -2.20970000      -0.79810000
H       -4.51110000      -2.24550000       0.84170000
