14
Properties=species:S:1:pos:R:3 gdb_31680=T pbc="F F F"
C        0.03160000       1.41990000      -0.08110000
O        0.02320000      -0.01170000      -0.03300000
C        0.58930000      -0.66710000      -1.02780000
N        0.66970000      -1.94650000      -1.15250000
C        1.35220000      -2.11430000      -2.35820000
C        1.69740000      -3.41030000      -2.95100000
O        1.43830000      -4.48890000      -2.47720000
C        1.64210000      -0.89630000      -2.88930000
O        1.15510000       0.05900000      -2.04020000
H        1.05540000       1.80440000      -0.08860000
H       -0.50110000       1.78410000      -0.96410000
H       -0.48190000       1.74130000       0.82410000
H        2.24230000      -3.31360000      -3.91770000
H        2.14040000      -0.54780000      -3.77750000
