14
Properties=species:S:1:pos:R:3 gdb_4268=T pbc="F F F"
C       -0.02390000       1.50510000       0.03970000
C        0.00110000       0.00230000      -0.03540000
N       -0.03020000      -0.60260000      -1.17230000
C       -0.00600000      -2.01940000      -1.23220000
O       -0.03520000      -2.59720000      -2.30040000
C        0.05540000      -2.72360000       0.05600000
C        0.08550000      -2.02940000       1.20710000
N        0.05840000      -0.65420000       1.17230000
H        0.87530000       1.88870000       0.53520000
H       -0.07270000       1.90530000      -0.97160000
H       -0.89290000       1.85600000       0.60780000
H        0.07550000      -3.80540000       0.05050000
H        0.13070000      -2.47920000       2.19200000
H        0.08040000      -0.12520000       2.02870000
