19
Properties=species:S:1:pos:R:3 gdb_22046=T pbc="F F F"
C        0.17290000       1.49700000       0.01360000
C        0.09310000      -0.00520000       0.04710000
N        0.05500000      -0.69430000       1.12040000
O        0.07480000       0.11550000       2.26020000
C        0.01190000      -0.79560000      -1.26380000
C        0.09190000      -2.32090000      -1.04770000
C       -1.30980000      -0.43440000      -1.99350000
C        1.14290000      -0.38220000      -2.11730000
N        2.02260000      -0.05930000      -2.79420000
H        0.93810000       1.84130000       0.71390000
H        0.41010000       1.86810000      -0.98440000
H       -0.77460000       1.93890000       0.34120000
H        0.08000000      -0.53350000       2.97210000
H       -0.74370000      -2.64850000      -0.42720000
H        0.04520000      -2.83150000      -2.01290000
H        1.01840000      -2.59940000      -0.54370000
H       -1.39220000       0.63960000      -2.17470000
H       -1.36210000      -0.94760000      -2.95710000
H       -2.15580000      -0.75240000      -1.37810000
