8
Properties=species:S:1:pos:R:3 gdb_166=T pbc="F F F"
N        0.01830000       1.30630000       0.00930000
C        1.29030000       1.76790000      -0.00040000
C        2.04780000       0.62290000      -0.01450000
N        1.21260000      -0.45470000      -0.01210000
N       -0.02070000      -0.04000000       0.00280000
H       -0.84580000       1.82410000       0.02060000
H        1.53250000       2.81680000       0.00310000
H        3.11940000       0.51010000      -0.02590000
