18
Properties=species:S:1:pos:R:3 gdb_37297=T pbc="F F F"
C        0.01580000       1.56750000       0.16850000
O        1.46730000       1.55120000       0.12930000
C        1.49560000       0.12480000       0.03110000
C       -0.05700000       0.03210000       0.00760000
C        0.00910000      -0.66130000      -1.40030000
C       -0.00280000       0.06550000      -2.76870000
N        0.63400000       1.39040000      -2.62190000
C        1.49320000       0.19270000      -2.73900000
C        1.56270000      -0.55310000      -1.38740000
H       -0.33540000       1.90910000       1.15080000
H       -0.41160000       2.18250000      -0.62270000
H        2.13450000      -0.33360000       0.79360000
H       -0.63230000      -0.50960000       0.75850000
H       -0.45060000      -1.64960000      -1.43530000
H       -0.67050000      -0.13240000      -3.59890000
H        0.62120000       1.82630000      -3.54330000
H        2.21300000       0.12380000      -3.54570000
H        2.16110000      -1.46480000      -1.43180000
