15
Properties=species:S:1:pos:R:3 gdb_43125=T pbc="F F F"
O        0.00340000       0.03390000      -0.09090000
C       -0.00200000       1.22850000      -0.01020000
C       -1.21890000       2.18150000       0.05350000
N       -1.18760000       2.69520000       1.44360000
C        0.05140000       3.05960000       1.93160000
N        1.19080000       2.83620000       1.39220000
C        1.15060000       2.23110000       0.03040000
C        0.59720000       3.26190000      -0.93790000
C       -0.74570000       3.23340000      -0.93010000
H       -2.17390000       1.69610000      -0.14330000
H       -1.97710000       3.24460000       1.75440000
H        0.01940000       3.56880000       2.89580000
H        2.12650000       1.81340000      -0.21350000
H        1.22050000       3.94690000      -1.49970000
H       -1.40550000       3.89020000      -1.48460000
