19
Properties=species:S:1:pos:R:3 gdb_41268=T pbc="F F F"
C        0.02540000       1.45350000       0.18190000
O        1.41140000       1.59350000      -0.26040000
C        1.35190000       0.27480000      -0.77140000
C        2.43580000      -0.76340000      -1.01080000
C        1.45660000      -1.42620000      -2.03980000
C        0.19420000      -2.12250000      -1.44840000
C       -0.52110000      -0.75010000      -1.26350000
C        0.06300000      -0.08720000      -0.00520000
C        0.63040000      -0.09660000      -2.11920000
H       -0.10090000       1.81260000       1.20690000
H       -0.66290000       1.99030000      -0.48280000
H        3.29450000      -0.34340000      -1.54620000
H        2.79220000      -1.34450000      -0.15450000
H        1.91680000      -1.90230000      -2.90440000
H       -0.29910000      -2.71570000      -2.22370000
H        0.31820000      -2.74910000      -0.55810000
H       -1.58990000      -0.69160000      -1.47610000
H        0.08020000      -0.65290000       0.92980000
H        0.54120000       0.54900000      -2.98890000
