21
Properties=species:S:1:pos:R:3 gdb_40916=T pbc="F F F"
C       -0.02080000       1.61980000      -0.02260000
C        1.52490000       1.43220000       0.00580000
C        1.25410000       0.22100000       0.94640000
C       -0.00450000       0.06430000       0.04340000
C        0.61810000      -0.30760000      -1.31280000
C        0.89800000      -1.80380000      -1.57290000
O       -0.12130000      -1.86640000      -2.59000000
C       -0.34140000      -0.44400000      -2.51490000
C        1.77990000       0.73080000      -1.34230000
H       -0.40930000       2.07330000       0.89210000
H       -0.46870000       2.09890000      -0.89910000
H        2.19930000       2.24140000       0.28660000
H        1.98520000      -0.59360000       0.96600000
H        1.00280000       0.52380000       1.96540000
H       -0.87580000      -0.51410000       0.35470000
H        1.89460000      -2.02730000      -1.97900000
H        0.69300000      -2.48820000      -0.73890000
H       -1.39470000      -0.19760000      -2.32570000
H       -0.01580000       0.06880000      -3.43100000
H        1.70180000       1.41470000      -2.19370000
H        2.76280000       0.25060000      -1.38730000
