18
Properties=species:S:1:pos:R:3 gdb_91894=T pbc="F F F"
O       -0.08790000       1.47190000      -0.03590000
C       -0.04410000       0.05970000       0.08810000
C       -1.42850000      -0.48630000      -0.28150000
C       -1.38940000      -1.98310000      -0.06010000
C       -1.59180000      -2.98110000      -1.15980000
N       -0.25580000      -2.66010000      -0.68240000
C        0.63260000      -1.90830000      -1.46060000
O        1.06500000      -2.29490000      -2.52020000
C        1.03190000      -0.56960000      -0.83350000
H        0.76960000       1.82590000       0.22110000
H        0.16180000      -0.22130000       1.13330000
H       -2.19750000      -0.00850000       0.33040000
H       -1.63850000      -0.24410000      -1.33030000
H       -1.59180000      -2.31190000       0.95820000
H       -1.95280000      -3.97780000      -0.92310000
H       -1.86240000      -2.61440000      -2.14650000
H        1.22220000       0.11080000      -1.66830000
H        1.98150000      -0.70220000      -0.30200000
