20
Properties=species:S:1:pos:R:3 gdb_95882=T pbc="F F F"
C        0.04100000       1.59270000      -0.13430000
C        0.02230000       0.06900000      -0.09290000
C        0.78430000      -0.55810000      -1.26530000
O        0.77070000      -1.97290000      -1.18200000
C        1.39220000      -2.44400000      -0.00010000
C        0.72110000      -1.85590000       1.24850000
N        0.54270000      -0.40270000       1.20220000
C       -0.62500000      -2.52290000       1.54250000
O       -0.87840000      -3.67350000       1.30280000
H        1.06950000       1.97300000      -0.09910000
H       -0.42020000       1.96660000      -1.05310000
H       -0.50140000       2.00450000       0.72080000
H       -1.01790000      -0.28040000      -0.16280000
H        0.32020000      -0.30160000      -2.22310000
H        1.82440000      -0.18290000      -1.27380000
H        1.28900000      -3.53170000      -0.00290000
H        2.46380000      -2.18130000      -0.00070000
H        1.34290000      -2.08680000       2.12650000
H        1.42970000       0.05630000       1.38910000
H       -1.35180000      -1.84530000       2.04430000
