23
Properties=species:S:1:pos:R:3 gdb_92539=T pbc="F F F"
C        1.09110000       1.03910000      -0.70810000
C        0.27530000      -0.08130000      -0.05600000
O        0.26850000      -1.26010000      -0.87050000
C        1.18520000      -2.22250000      -0.37720000
C        2.65330000      -2.09970000      -0.88020000
C        3.08480000      -1.56590000       0.51730000
C        1.62960000      -1.77420000       1.04420000
C        0.73710000      -0.55810000       1.34810000
C        1.33500000       0.50830000       2.26540000
H        2.15780000       0.80720000      -0.76280000
H        0.72870000       1.19740000      -1.72770000
H        0.97470000       1.97850000      -0.15770000
H       -0.76790000       0.25560000      -0.00770000
H        0.72560000      -3.20740000      -0.49960000
H        3.10470000      -3.05960000      -1.14480000
H        2.77600000      -1.41610000      -1.72270000
H        3.83260000      -2.17830000       1.02620000
H        3.44140000      -0.53350000       0.53000000
H        1.55700000      -2.52870000       1.83010000
H       -0.15900000      -0.95710000       1.84040000
H        2.25670000       0.93460000       1.85960000
H        0.63120000       1.33220000       2.42520000
H        1.57090000       0.08360000       3.24660000
