21
Properties=species:S:1:pos:R:3 gdb_60119=T pbc="F F F"
C        0.58710000       0.21780000      -0.69530000
C        0.09430000      -0.05420000       0.72480000
O        0.11000000       1.12990000       1.51390000
C       -1.30470000      -0.71280000       0.78500000
C       -1.38900000      -2.06080000       0.12890000
C       -1.03440000      -3.24740000       0.61880000
C       -1.28910000      -4.32880000      -0.39050000
O       -1.80550000      -3.65490000      -1.53660000
C       -1.93270000      -2.26570000      -1.26550000
H        1.55560000       0.72420000      -0.66280000
H        0.70040000      -0.70960000      -1.26370000
H       -0.11780000       0.86180000      -1.23730000
H        0.80230000      -0.72580000       1.22410000
H       -0.43700000       1.78690000       1.06890000
H       -1.57260000      -0.78920000       1.84340000
H       -2.02940000      -0.02640000       0.32400000
H       -0.63310000      -3.44380000       1.60590000
H       -0.37620000      -4.88000000      -0.66690000
H       -2.01700000      -5.07480000      -0.03100000
H       -2.99050000      -1.95730000      -1.33230000
H       -1.38610000      -1.68800000      -2.02760000
