17
Properties=species:S:1:pos:R:3 gdb_45224=T pbc="F F F"
O       -0.00810000      -0.00600000      -0.33850000
C        0.02340000       1.16110000      -0.07810000
O       -1.10760000       1.87020000       0.22000000
C       -0.80600000       3.23520000       0.52240000
C       -0.41970000       3.49870000       2.00500000
C        1.07610000       3.60100000       1.60490000
C        1.79810000       2.23520000       1.46250000
C        1.23200000       2.07860000       0.00590000
C        0.66300000       3.51160000       0.09190000
H       -1.60820000       3.84580000       0.10840000
H       -0.81890000       4.45360000       2.35690000
H       -0.70120000       2.71530000       2.71370000
H        1.65060000       4.42280000       2.03050000
H        2.88440000       2.34510000       1.44450000
H        1.53970000       1.45130000       2.17980000
H        1.96230000       1.82360000      -0.75950000
H        0.87990000       4.24840000      -0.67860000
