18
Properties=species:S:1:pos:R:3 gdb_102211=T pbc="F F F"
C       -0.00470000       1.49660000       0.02750000
C        0.01260000       0.04170000      -0.01250000
C        0.03380000      -1.16130000      -0.03840000
C        0.02150000      -2.61710000      -0.06730000
C       -1.40710000      -3.22040000      -0.01930000
C       -1.38020000      -4.76050000      -0.18100000
O       -2.66610000      -5.33000000      -0.18380000
C       -2.09580000      -2.88960000       1.23070000
N       -2.65330000      -2.70550000       2.22680000
H        0.90750000       1.89060000       0.48860000
H       -0.07980000       1.92290000      -0.97880000
H       -0.85630000       1.86420000       0.60990000
H        0.50130000      -2.98190000      -0.98440000
H        0.60580000      -3.01950000       0.76950000
H       -1.99750000      -2.80310000      -0.84220000
H       -0.93430000      -4.99550000      -1.15250000
H       -0.73530000      -5.19310000       0.59920000
H       -3.05540000      -5.19960000       0.68890000
