12
Properties=species:S:1:pos:R:3 gdb_129176=T pbc="F F F"
N       -0.02800000       1.28640000      -0.01930000
C       -0.02920000       0.03130000       0.01820000
N       -1.14180000      -0.80620000       0.06310000
C       -0.69150000      -2.13060000      -0.02910000
C        0.65480000      -2.05360000      -0.01860000
O        1.26290000      -3.21860000      -0.00980000
N        0.21560000      -4.19520000      -0.02440000
C       -0.92630000      -3.51840000      -0.01880000
O        1.13640000      -0.79920000       0.02860000
H        0.91140000       1.67040000      -0.05050000
H       -2.04000000      -0.44620000      -0.20990000
H       -1.84750000      -4.08200000      -0.02400000
