19
Properties=species:S:1:pos:R:3 gdb_39897=T pbc="F F F"
C       -0.01820000       1.47440000       0.00370000
C        1.29490000       0.71060000      -0.00040000
C       -0.00730000      -0.01760000       0.00200000
C       -0.53010000      -0.94030000       1.09040000
C       -2.00890000      -1.02250000       0.68570000
O       -1.94680000      -1.02550000      -0.75940000
C       -0.55110000      -0.92870000      -1.08590000
C        0.10870000      -2.25460000      -0.68100000
O        0.07560000      -2.20150000       0.76410000
H       -0.30370000       1.98730000       0.91710000
H       -0.31610000       1.98840000      -0.90430000
H        1.88170000       0.71560000      -0.91380000
H        1.88930000       0.70630000       0.90750000
H       -0.32390000      -0.69850000       2.13280000
H       -2.47220000      -1.94840000       1.04200000
H       -2.59640000      -0.16200000       1.03120000
H       -0.44300000      -0.63010000      -2.12850000
H       -0.46720000      -3.11520000      -1.03690000
H        1.14710000      -2.33990000      -1.02660000
