14
Properties=species:S:1:pos:R:3 gdb_26743=T pbc="F F F"
O       -0.04620000       1.39120000      -0.10590000
C        0.02190000       0.02270000      -0.00380000
C        0.05700000      -0.79450000      -1.09320000
O        0.08320000      -0.52680000      -2.41910000
N        0.04260000      -2.11340000      -0.65390000
C        0.06260000      -3.24650000      -1.45990000
O        0.06220000      -4.37030000      -1.02670000
C        0.00970000      -2.11180000       0.74520000
C       -0.01230000      -0.81730000       1.16570000
H        0.58740000       1.78500000       0.50270000
H        0.08530000       0.43410000      -2.50920000
H        0.07870000      -2.99040000      -2.53050000
H        0.00140000      -3.05120000       1.26840000
H       -0.05190000      -0.48110000       2.19080000
