16
Properties=species:S:1:pos:R:3 gdb_127954=T pbc="F F F"
C       -0.01400000       1.45920000      -0.01060000
N       -0.04430000       0.01120000      -0.06580000
C        0.51040000      -0.64970000       0.88010000
N        1.16160000      -0.06240000       1.99140000
N        1.77150000      -0.68650000       3.00600000
N        1.78890000      -1.95100000       3.04110000
C        1.17250000      -2.67840000       2.01170000
N        1.24060000      -4.02880000       2.23420000
C        0.55700000      -2.08230000       0.95460000
H        1.00950000       1.87320000      -0.02220000
H       -0.52840000       1.86280000      -0.88640000
H       -0.52410000       1.87080000       0.87780000
H        1.21440000       0.94110000       2.07090000
H        1.94080000      -4.31430000       2.90120000
H        1.10880000      -4.64390000       1.44830000
H        0.08790000      -2.64360000       0.15640000
