19
Properties=species:S:1:pos:R:3 gdb_50664=T pbc="F F F"
O       -0.15720000      -0.03520000       0.03830000
C       -0.01820000       1.15820000      -0.03520000
C        1.30630000       1.88530000       0.03550000
C        1.48100000       2.87780000      -1.14710000
C        1.83730000       4.20230000      -0.44850000
O        1.16920000       4.13790000       0.80410000
C        1.34020000       2.82080000       1.26150000
C        0.77660000       2.49970000       2.60750000
C        2.28080000       2.58360000       2.41600000
H       -0.89580000       1.83810000      -0.14530000
H        2.10180000       1.13900000       0.08080000
H        2.24170000       2.54740000      -1.85690000
H        0.53830000       2.98750000      -1.69420000
H        2.92530000       4.28680000      -0.30440000
H        1.48220000       5.09120000      -0.97460000
H        0.29200000       3.31140000       3.13790000
H        0.32960000       1.52330000       2.76070000
H        2.85710000       1.66470000       2.44370000
H        2.78210000       3.45730000       2.81710000
