19
Properties=species:S:1:pos:R:3 gdb_72496=T pbc="F F F"
C       -0.04680000       1.48880000       0.02920000
C        0.04790000      -0.02240000      -0.01860000
C        0.68340000      -0.60780000      -1.30410000
O       -0.05800000      -1.80440000      -1.55010000
C       -0.99610000      -1.91190000      -0.49320000
C       -0.38790000      -2.66360000       0.69560000
O        0.81830000      -2.03890000       1.11040000
C        0.70070000      -0.62900000       1.23230000
O       -1.27880000      -0.58630000      -0.09580000
H        0.94850000       1.94020000      -0.02970000
H       -0.64580000       1.85220000      -0.80980000
H       -0.51960000       1.82070000       0.95820000
H        0.56230000       0.07230000      -2.15540000
H        1.74490000      -0.84180000      -1.17400000
H       -1.91160000      -2.38370000      -0.86230000
H       -1.12710000      -2.69110000       1.51230000
H       -0.12570000      -3.68720000       0.41500000
H        1.71730000      -0.25040000       1.37890000
H        0.09090000      -0.35690000       2.10850000
