23
Properties=species:S:1:pos:R:3 gdb_79958=T pbc="F F F"
C        0.26810000       1.81150000      -0.42610000
C        0.31670000       0.30980000      -0.24430000
C        1.57520000      -0.53310000      -0.40750000
C        2.87300000       0.16640000      -0.18710000
C        3.00350000       0.58720000       1.07310000
C        1.84600000       0.15100000       1.96190000
C        2.32700000      -0.96340000       2.91730000
C        1.25910000       1.30230000       2.79970000
C        0.86500000      -0.45620000       0.94070000
H        1.20300000       2.29450000      -0.13550000
H        0.08120000       2.05630000      -1.47810000
H       -0.54220000       2.25550000       0.16250000
H       -0.56160000      -0.18300000      -0.65850000
H        1.53720000      -1.40850000      -1.04780000
H        3.59240000       0.33470000      -0.98140000
H        3.83480000       1.16620000       1.46340000
H        3.11950000      -0.59730000       3.57890000
H        1.50160000      -1.31740000       3.54660000
H        2.72120000      -1.81550000       2.35600000
H        0.92970000       2.13770000       2.17920000
H        0.39910000       0.95500000       3.38250000
H        2.00450000       1.68270000       3.50760000
H        0.26680000      -1.29230000       1.28960000
