22
Properties=species:S:1:pos:R:3 gdb_60352=T pbc="F F F"
C       -0.13620000       1.53200000       0.02520000
C        0.01650000       0.00600000       0.02820000
C        0.71650000      -0.49660000      -1.24060000
C        0.77280000      -0.47500000       1.26520000
O        0.03160000      -0.11120000       2.42260000
C        0.61050000      -0.52700000       3.64310000
C        1.66510000       0.45880000       4.16730000
C       -0.48570000      -0.67820000       4.61810000
N       -1.32050000      -0.80000000       5.40660000
H        0.84320000       2.02150000      -0.04490000
H       -0.73370000       1.86170000      -0.83040000
H       -0.62330000       1.87760000       0.93970000
H       -0.98460000      -0.44200000       0.07740000
H        1.73210000      -0.09070000      -1.31900000
H        0.78940000      -1.58920000      -1.25850000
H        0.16800000      -0.18370000      -2.13410000
H        0.89990000      -1.56940000       1.23650000
H        1.77890000      -0.02490000       1.28640000
H        1.06950000      -1.52170000       3.52250000
H        2.06510000       0.11890000       5.12640000
H        2.49090000       0.53460000       3.45590000
H        1.21840000       1.44670000       4.29930000
