17
Properties=species:S:1:pos:R:3 gdb_107092=T pbc="F F F"
O        0.63170000       0.23280000       0.88730000
C       -0.07220000       0.28550000      -0.34060000
C       -1.43920000      -0.34750000      -0.26140000
C       -2.25730000      -0.50630000       0.99030000
C       -1.89540000      -1.72860000       0.17760000
C       -2.78340000      -1.76430000      -1.07600000
N       -2.25550000      -0.42530000      -1.48300000
C       -2.45600000      -2.81220000      -2.04530000
N       -2.20400000      -3.65990000      -2.78880000
H        0.25900000       0.89980000       1.47180000
H       -0.17690000       1.31860000      -0.70990000
H        0.53440000      -0.25370000      -1.07500000
H       -1.70400000      -0.42890000       1.92050000
H       -3.28600000      -0.15340000       1.03550000
H       -1.32420000      -2.55900000       0.56790000
H       -3.86150000      -1.80260000      -0.87610000
H       -2.97420000       0.29060000      -1.56260000
