21
Properties=species:S:1:pos:R:3 gdb_81188=T pbc="F F F"
C       -0.10030000       1.60210000       0.09040000
C        0.05310000       0.09070000       0.01170000
C        1.18960000      -0.59340000      -0.79230000
C        2.18750000      -0.17830000       0.36010000
C        0.90990000      -0.72710000       1.06570000
C        0.31960000      -1.31040000       2.31020000
C       -0.37390000      -2.40380000       1.95340000
C       -0.28640000      -2.73220000       0.45220000
C        0.94510000      -1.89180000       0.05750000
H        0.83570000       2.13380000       0.27850000
H       -0.51570000       1.99160000      -0.84640000
H       -0.79940000       1.87170000       0.89010000
H       -0.93100000      -0.35150000      -0.16790000
H        1.38080000      -0.51460000      -1.86490000
H        3.08920000      -0.78900000       0.45790000
H        2.42620000       0.88120000       0.45480000
H        0.34600000      -0.88350000       3.30590000
H       -0.98980000      -2.98900000       2.62930000
H       -0.14130000      -3.80140000       0.26680000
H       -1.22170000      -2.45690000      -0.05010000
H        1.84580000      -2.50800000       0.15060000
