21
Properties=species:S:1:pos:R:3 gdb_70834=T pbc="F F F"
C        0.00600000       1.49600000      -0.04720000
C        0.02750000      -0.00860000      -0.03970000
C        0.62530000      -0.94980000      -1.12040000
C        0.04200000      -1.87720000      -0.02830000
O       -0.04110000      -3.26010000      -0.00560000
C        0.61640000      -0.93310000       1.08110000
C       -0.33350000      -0.94920000       2.27840000
C       -1.70050000      -0.97350000       1.53230000
C       -1.20840000      -0.97010000       0.08470000
H        1.02210000       1.90530000      -0.07130000
H       -0.52880000       1.87940000      -0.92310000
H       -0.49090000       1.89130000       0.84580000
H        0.12630000      -0.95950000      -2.09430000
H        1.71480000      -0.93360000      -1.23310000
H        0.85270000      -3.61930000      -0.01070000
H        1.69540000      -0.91470000       1.25770000
H       -0.18390000      -1.83320000       2.90610000
H       -0.21480000      -0.06880000       2.91830000
H       -2.28820000      -1.86710000       1.76140000
H       -2.32270000      -0.10220000       1.76050000
H       -1.94080000      -0.98630000      -0.72550000
