15
Properties=species:S:1:pos:R:3 gdb_3408=T pbc="F F F"
C       -0.09140000       1.58220000       0.01600000
C        0.15770000       0.08760000       0.03750000
O        1.31820000      -0.35320000      -0.75170000
C        1.75270000      -1.19000000       0.33160000
C        2.19060000      -0.31490000       1.44870000
O        2.79150000       0.91950000       1.21240000
C        0.70540000      -0.61030000       1.28080000
H        0.73640000       2.13340000       0.46420000
H       -0.24450000       1.92660000      -1.01210000
H       -1.00150000       1.80680000       0.58290000
H       -0.71920000      -0.44890000      -0.34690000
H        2.07840000      -2.19610000       0.09160000
H        2.63090000      -0.82500000       2.30130000
H        2.74990000       1.04830000       0.25460000
H        0.10950000      -1.08480000       2.04960000
