17
Properties=species:S:1:pos:R:3 gdb_79480=T pbc="F F F"
C       -0.14830000       1.59960000       0.01060000
C       -0.04220000       0.08310000       0.00240000
C        1.16320000      -0.58990000      -0.69060000
C        2.10960000      -0.36180000       0.52990000
O        2.53250000      -1.74930000       0.61810000
C        1.12360000      -1.81930000       0.26540000
C        0.69190000      -0.61360000       1.18420000
C        0.35210000      -0.63310000       2.57120000
C        0.04920000      -0.63130000       3.73590000
H        0.81270000       2.07170000       0.24110000
H       -0.47950000       1.97460000      -0.96360000
H       -0.87230000       1.93500000       0.76030000
H       -1.00730000      -0.37790000      -0.23640000
H        1.45550000      -0.59910000      -1.73960000
H        2.83880000       0.41950000       0.73750000
H        0.65180000      -2.79430000       0.14940000
H       -0.21020000      -0.63640000       4.76560000
