23
Properties=species:S:1:pos:R:3 gdb_92146=T pbc="F F F"
C       -0.24000000       1.56650000       0.06840000
C        0.02290000       0.05780000      -0.01460000
C        0.72040000      -0.42230000      -1.32810000
C        2.11590000      -0.88900000      -0.88850000
C        2.93460000       0.28730000      -0.26970000
C        2.42640000      -0.13830000       1.10680000
C        0.93960000      -0.48870000       1.08190000
C        1.93850000      -1.47340000       0.55310000
C        2.16430000      -2.88510000       1.00240000
H        0.68600000       2.14400000      -0.00630000
H       -0.90770000       1.89540000      -0.73540000
H       -0.71430000       1.82770000       1.02100000
H       -0.94680000      -0.44750000       0.07530000
H        0.16380000      -1.25580000      -1.77150000
H        0.77300000       0.36890000      -2.08450000
H        2.64120000      -1.50030000      -1.62390000
H        4.01140000       0.11510000      -0.35720000
H        2.71370000       1.29840000      -0.63050000
H        2.92300000       0.05490000       2.05210000
H        0.51460000      -0.67650000       2.06400000
H        1.44710000      -3.57480000       0.53980000
H        3.17060000      -3.23690000       0.74570000
H        2.05080000      -2.97380000       2.08830000
