20
Properties=species:S:1:pos:R:3 gdb_52698=T pbc="F F F"
C        0.08000000       1.45100000      -0.01330000
C        0.04420000      -0.00400000      -0.02290000
C        0.02410000      -1.20730000      -0.03460000
C       -0.03780000      -2.66440000      -0.01430000
C       -1.46960000      -3.19690000      -0.12190000
O        0.75120000      -3.14540000      -1.13480000
C        1.33790000      -4.35330000      -1.00780000
C        2.13350000      -4.66420000      -2.25060000
N        1.19480000      -5.06420000       0.03570000
H        0.60370000       1.83590000      -0.89530000
H       -0.93010000       1.87520000      -0.01750000
H        0.59870000       1.83280000       0.87290000
H        0.42160000      -3.05370000       0.89950000
H       -2.07210000      -2.80830000       0.70370000
H       -1.92230000      -2.87730000      -1.06400000
H       -1.45890000      -4.28730000      -0.06900000
H        2.89350000      -3.89390000      -2.41200000
H        2.61860000      -5.63850000      -2.17210000
H        1.47790000      -4.65890000      -3.12660000
H        1.72190000      -5.92990000      -0.04520000
