15
Properties=species:S:1:pos:R:3 gdb_81725=T pbc="F F F"
O       -0.14160000       1.49410000       0.12760000
C       -0.03220000       0.09690000       0.01280000
C       -1.35740000      -0.65760000       0.05070000
C       -2.18370000      -0.27350000      -1.11540000
C       -1.06480000      -1.30400000      -1.35590000
C       -1.31620000      -2.61100000      -1.84840000
C       -1.50470000      -3.72130000      -2.27210000
C        0.23600000      -0.53840000      -1.38670000
O        1.18410000      -0.52470000      -2.11600000
H        0.70010000       1.87750000      -0.14330000
H        0.69500000      -0.32240000       0.72580000
H       -1.74940000      -1.18700000       0.90800000
H       -3.17510000      -0.70820000      -1.17400000
H       -2.09260000       0.72050000      -1.53930000
H       -1.66620000      -4.70150000      -2.64680000
