18
Properties=species:S:1:pos:R:3 gdb_126755=T pbc="F F F"
C       -0.04530000       1.50670000      -0.08170000
C       -0.08310000      -0.01990000       0.00290000
N       -1.43580000      -0.54700000       0.02250000
N       -2.04710000      -0.90210000       1.14420000
C       -3.28630000      -1.23640000       0.76920000
C       -4.32860000      -1.72260000       1.71910000
C       -3.35590000      -1.04390000      -0.62380000
O       -4.42760000      -1.27020000      -1.41000000
N       -2.19050000      -0.60560000      -1.08280000
H        0.99200000       1.85450000      -0.10320000
H       -0.54580000       1.85290000      -0.98970000
H       -0.54280000       1.95400000       0.78330000
H        0.43090000      -0.46780000      -0.85220000
H        0.39010000      -0.37700000       0.91950000
H       -5.20900000      -1.07090000       1.71530000
H       -4.67250000      -2.72890000       1.45600000
H       -3.92310000      -1.75010000       2.73240000
H       -4.17530000      -1.05370000      -2.31580000
