21
Properties=species:S:1:pos:R:3 gdb_64019=T pbc="F F F"
C        0.04860000       1.53800000      -0.12560000
C        0.01320000       0.00830000      -0.00440000
O       -1.33210000      -0.43460000       0.04580000
C        0.84670000      -0.63360000      -1.15350000
C        2.22490000      -0.72800000      -0.54940000
C        2.18260000      -0.61870000       0.77780000
C        0.75490000      -0.50130000       1.28080000
C        0.57470000       0.35680000       2.53160000
O        0.22950000      -1.81420000       1.54160000
H        1.07160000       1.92400000      -0.11740000
H       -0.41030000       1.83980000      -1.07520000
H       -0.51330000       2.00700000       0.68550000
H       -1.81750000       0.03030000      -0.64300000
H        0.44480000      -1.62810000      -1.37980000
H        0.81540000      -0.04500000      -2.07810000
H        3.12180000      -0.88170000      -1.14000000
H        3.03160000      -0.67280000       1.45220000
H        1.00000000       1.35790000       2.41710000
H       -0.48800000       0.44370000       2.77350000
H        1.07580000      -0.12100000       3.38120000
H        0.86210000      -2.26280000       2.11230000
