19
Properties=species:S:1:pos:R:3 gdb_103573=T pbc="F F F"
C        0.12680000       1.41560000      -0.30060000
C       -0.09390000      -0.09650000      -0.19310000
C       -1.52750000      -0.48950000       0.16850000
O       -1.96490000       0.07050000       1.38650000
C       -2.54180000      -0.39200000      -1.03660000
C       -2.29670000      -1.88810000      -1.23160000
O       -2.23770000      -2.61940000      -2.18220000
C       -1.74630000      -2.04650000       0.18080000
O       -0.68910000      -2.93250000       0.38250000
H        1.15630000       1.63610000      -0.59620000
H       -0.53510000       1.87440000      -1.04350000
H       -0.04060000       1.91620000       0.65970000
H        0.17510000      -0.57510000      -1.14290000
H        0.57100000      -0.52300000       0.56460000
H       -1.91010000       1.02950000       1.31850000
H       -3.55270000      -0.17740000      -0.67840000
H       -2.30200000       0.25150000      -1.88500000
H       -2.55650000      -2.23960000       0.89870000
H       -0.50490000      -3.35170000      -0.46770000
