17
Properties=species:S:1:pos:R:3 gdb_124687=T pbc="F F F"
C        0.01410000       1.57760000      -0.04400000
C        0.00360000       0.03930000       0.02160000
C        0.72410000      -0.47730000       1.27870000
O        2.07530000      -0.06250000       1.18720000
C       -1.38460000      -0.50820000      -0.04120000
C       -2.03890000      -1.30380000      -0.93250000
N       -3.31920000      -1.47320000      -0.46350000
N       -3.48540000      -0.85810000       0.61680000
O       -2.23870000      -0.20530000       0.93850000
H        1.04220000       1.93620000       0.02740000
H       -0.42160000       1.93290000      -0.98180000
H       -0.56370000       2.00210000       0.78250000
H        0.54570000      -0.35780000      -0.84410000
H        0.23080000      -0.06890000       2.17330000
H        0.64260000      -1.57410000       1.32310000
H        2.52420000      -0.30830000       2.00100000
H       -1.69890000      -1.75400000      -1.84900000
