20
Properties=species:S:1:pos:R:3 gdb_56278=T pbc="F F F"
O       -1.53160000       1.40120000      -1.85150000
C       -0.64570000       1.63440000      -0.87220000
O        0.53890000       1.66730000      -1.07740000
C       -1.24820000       1.88620000       0.51690000
C       -2.50210000       1.06740000       0.84520000
N       -3.59570000       1.39840000      -0.08510000
H       -3.87650000       2.36580000       0.05290000
H       -2.44330000       1.39690000      -1.46120000
C       -4.74960000       0.53310000       0.01680000
C       -5.74670000       0.65190000       1.14780000
C       -6.11580000       1.07990000      -0.25780000
H       -0.46210000       1.69140000       1.24880000
H       -1.48130000       2.95820000       0.58620000
H       -2.28990000      -0.00150000       0.72830000
H       -2.79040000       1.22050000       1.89560000
H       -4.53610000      -0.46860000      -0.34540000
H       -6.18930000      -0.25210000       1.55110000
H       -5.58690000       1.43640000       1.88060000
H       -6.20610000       2.14440000      -0.45170000
H       -6.80890000       0.47130000      -0.82700000
