18
Properties=species:S:1:pos:R:3 gdb_44078=T pbc="F F F"
N       -0.11200000       1.19020000      -0.15980000
C       -0.07970000      -0.05660000      -0.03520000
O        1.00610000      -0.91600000       0.11520000
C        0.12100000      -2.04740000       0.25870000
C        0.33740000      -3.46470000      -0.22070000
C       -0.62350000      -3.90410000       0.94040000
C       -0.48850000      -2.49510000       1.61730000
C       -1.67820000      -1.51800000       1.42880000
C       -1.12140000      -1.15700000       0.01080000
H        0.82780000       1.59020000      -0.13570000
H        0.06490000      -3.71050000      -1.25020000
H        1.36240000      -3.79850000      -0.03340000
H       -1.63870000      -4.12450000       0.60180000
H       -0.26800000      -4.74080000       1.54270000
H        0.07340000      -2.48040000       2.55110000
H       -2.66540000      -1.98670000       1.41580000
H       -1.70190000      -0.67440000       2.12180000
H       -1.77500000      -1.23660000      -0.85700000
