23
Properties=species:S:1:pos:R:3 gdb_97644=T pbc="F F F"
C        0.67980000       1.88640000       0.10020000
C        0.40810000       0.37220000       0.03820000
C        0.92430000      -0.25360000      -1.17580000
C        1.37010000      -0.74530000      -2.18220000
C        1.87320000      -1.35750000      -3.41160000
C        1.92530000      -2.89990000      -3.31800000
C        2.90770000      -3.41260000      -2.26450000
C        1.02760000      -0.89470000      -4.61000000
O        1.65280000      -1.37050000      -5.79230000
H        1.75360000       2.08970000       0.06490000
H        0.21260000       2.39980000      -0.74460000
H        0.27830000       2.30970000       1.02590000
H        0.85300000      -0.11450000       0.91590000
H       -0.67220000       0.19180000       0.11210000
H        2.89560000      -0.99620000      -3.59560000
H        0.91540000      -3.26810000      -3.09780000
H        2.19640000      -3.27900000      -4.30760000
H        2.90790000      -4.50650000      -2.22820000
H        3.93050000      -3.08770000      -2.48660000
H        2.64830000      -3.04040000      -1.26860000
H        0.00520000      -1.28970000      -4.50480000
H        0.96370000       0.20310000      -4.60450000
H        1.09480000      -1.14310000      -6.54120000
