14
Properties=species:S:1:pos:R:3 gdb_6434=T pbc="F F F"
O        0.21820000       1.52460000      -0.22710000
C       -0.00630000       0.17530000       0.02040000
C        0.16690000      -0.27930000       1.51860000
C       -1.23920000      -0.88900000       1.45470000
O       -1.85090000      -1.63160000       2.16370000
C       -1.51820000      -0.26230000       0.08270000
C        0.79670000      -0.67510000      -0.93220000
O        1.51530000      -0.18510000      -1.76960000
H        0.84810000       1.55800000      -0.96580000
H        0.98580000      -0.95620000       1.77720000
H        0.21410000       0.60300000       2.16410000
H       -2.15260000       0.62700000       0.14750000
H       -1.91150000      -0.92680000      -0.69150000
H        0.69150000      -1.77380000      -0.82170000
