17
Properties=species:S:1:pos:R:3 gdb_126073=T pbc="F F F"
C       -0.10150000       1.52250000      -0.21100000
C       -0.03300000       0.04190000       0.04820000
O        1.23940000      -0.59550000      -0.07400000
C        0.63600000      -0.56930000       1.22110000
C        1.30690000       0.17670000       2.30990000
N        2.12990000       1.20440000       2.09190000
N        2.50680000       1.59870000       3.32130000
C        1.96140000       0.85680000       4.31420000
C        1.17030000      -0.08550000       3.69580000
H        0.70750000       2.04520000       0.30110000
H       -0.02480000       1.71800000      -1.28600000
H       -1.06270000       1.92040000       0.13320000
H       -0.85020000      -0.54060000      -0.38560000
H        0.25240000      -1.53680000       1.55070000
H        3.15870000       2.36000000       3.40630000
H        2.17870000       1.04870000       5.35290000
H        0.58010000      -0.85400000       4.16820000
