29
Properties=species:S:1:pos:R:3 gdb_122877=T pbc="F F F"
C       -0.01170000       1.68820000      -0.00690000
C       -0.00500000       0.15720000       0.01310000
C        0.68820000      -0.45990000      -1.20630000
C        0.69950000      -1.99350000      -1.19490000
C        1.39910000      -2.58570000      -2.42530000
C        1.47370000      -4.13040000      -2.52810000
C        0.06360000      -4.74770000      -2.57770000
C        2.21380000      -4.48140000      -3.83280000
C        2.25500000      -4.72420000      -1.34110000
H        1.00830000       2.08830000      -0.02650000
H       -0.53150000       2.07040000      -0.89270000
H       -0.51280000       2.09890000       0.87540000
H        0.49040000      -0.19520000       0.92770000
H       -1.03750000      -0.21300000       0.06800000
H        0.19310000      -0.10630000      -2.12190000
H        1.72140000      -0.08850000      -1.26200000
H        1.19370000      -2.33750000      -0.27740000
H       -0.33510000      -2.35510000      -1.13820000
H        0.89740000      -2.20770000      -3.32740000
H        2.42430000      -2.19120000      -2.46690000
H       -0.52250000      -4.32860000      -3.40370000
H        0.12060000      -5.83150000      -2.72840000
H       -0.49270000      -4.57590000      -1.65110000
H        3.22780000      -4.06640000      -3.83670000
H        2.29670000      -5.56660000      -3.95930000
H        1.68640000      -4.08290000      -4.70670000
H        1.74640000      -4.55190000      -0.38760000
H        2.37210000      -5.80730000      -1.45790000
H        3.25800000      -4.28800000      -1.27020000
