19
Properties=species:S:1:pos:R:3 gdb_78894=T pbc="F F F"
C       -0.36680000       1.53670000       0.02470000
C        0.05670000       0.06890000       0.00680000
C        0.80080000      -0.42380000      -1.23010000
C        1.43720000      -1.70490000      -0.90990000
C        1.74150000      -1.53510000       0.58690000
C        2.83000000      -0.52370000       0.19940000
C        2.19240000       0.48830000       1.12790000
N        0.92710000      -0.34100000       1.13290000
N        2.30120000      -0.50420000      -1.23700000
H        0.44240000       2.21980000      -0.24350000
H       -1.17430000       1.69190000      -0.69740000
H       -0.74170000       1.81280000       1.01460000
H       -0.86170000      -0.53290000       0.07880000
H        0.40610000      -0.23700000      -2.22460000
H        1.43380000      -2.61440000      -1.49960000
H        1.83730000      -2.37580000       1.27080000
H        3.90210000      -0.72600000       0.18490000
H        2.63680000       0.48600000       2.12900000
H        2.09580000       1.52050000       0.78700000
