14
Properties=species:S:1:pos:R:3 gdb_31367=T pbc="F F F"
C       -0.03500000       1.43020000       0.14050000
N        0.02050000      -0.00980000      -0.04170000
C        0.63020000      -0.58880000      -1.08930000
N        1.16490000       0.05620000      -2.06250000
C        1.73590000      -0.66290000      -3.11550000
O        2.21980000      -0.12730000      -4.07680000
N        1.73960000      -2.10110000      -3.02120000
C        1.19270000      -2.62210000      -2.01240000
O        0.58820000      -1.95720000      -0.97820000
H        0.79480000       1.79530000       0.75670000
H        0.02660000       1.90380000      -0.83910000
H       -0.97990000       1.69850000       0.61850000
H       -0.29030000      -0.62180000       0.69460000
H        1.13750000      -3.69490000      -1.84750000
