23
Properties=species:S:1:pos:R:3 gdb_114249=T pbc="F F F"
C       -0.05960000       1.46940000       0.18120000
C       -0.09020000      -0.05360000       0.01800000
C        0.66510000      -0.54170000      -1.21160000
C        2.21900000      -0.42830000      -1.23550000
C        2.26640000      -1.81130000      -1.91970000
C        2.62630000      -1.93610000      -3.41760000
C        3.71590000      -2.90760000      -2.92690000
O        3.30730000      -2.73540000      -1.55470000
C        0.82620000      -2.07340000      -1.43130000
H        0.96810000       1.83790000       0.27080000
H       -0.51530000       1.96880000      -0.68120000
H       -0.60530000       1.78600000       1.07550000
H        0.33810000      -0.52900000       0.91080000
H       -1.13220000      -0.39620000      -0.03960000
H        0.24290000      -0.07550000      -2.11010000
H        2.68290000       0.41500000      -1.75430000
H        2.63640000      -0.49980000      -0.22520000
H        1.85090000      -2.37980000      -4.04550000
H        2.98930000      -1.01950000      -3.88690000
H        3.61390000      -3.94840000      -3.25700000
H        4.75160000      -2.58520000      -3.08900000
H        0.84940000      -2.61050000      -0.47720000
H        0.13870000      -2.58400000      -2.11160000
