9
Properties=species:S:1:pos:R:3 gdb_21766=T pbc="F F F"
O       -0.04300000       1.31900000       0.00970000
N        1.32890000       1.75790000      -0.00110000
N        2.09810000       0.76890000      -0.01400000
N        1.34060000      -0.35270000      -0.01280000
C        1.35360000      -1.73310000      -0.02050000
N        0.11100000      -2.14180000      -0.01100000
N       -0.76760000      -1.04880000       0.00350000
C        0.02050000      -0.01770000       0.00170000
H        2.24170000      -2.34070000      -0.03230000
