23
Properties=species:S:1:pos:R:3 gdb_41900=T pbc="F F F"
C        0.00710000       1.56530000       0.10110000
C        1.43010000       2.11260000      -0.14950000
C        2.48720000       1.03860000       0.12230000
C        2.50980000       0.55850000       1.60200000
C        1.71320000      -0.73430000       1.81870000
C        0.23630000      -0.65840000       1.39560000
C       -0.02220000       0.01800000       0.02810000
C        0.97080000      -0.43920000      -1.04800000
O        2.32200000      -0.06410000      -0.77350000
H       -0.37080000       1.89100000       1.07570000
H       -0.67790000       1.97980000      -0.64610000
H        1.53560000       2.42570000      -1.19420000
H        1.63330000       2.99610000       0.46440000
H        3.47270000       1.44590000      -0.12760000
H        3.54650000       0.37960000       1.90770000
H        2.13300000       1.36100000       2.24950000
H        2.20690000      -1.52740000       1.24870000
H        1.77190000      -1.02730000       2.87330000
H       -0.16830000      -1.67780000       1.37120000
H       -0.34460000      -0.12150000       2.15650000
H       -1.02080000      -0.28990000      -0.30420000
H        0.96640000      -1.53140000      -1.14910000
H        0.66530000      -0.02090000      -2.02080000
