20
Properties=species:S:1:pos:R:3 gdb_7460=T pbc="F F F"
C        0.04150000       1.59970000       0.08610000
C        0.02360000       0.07500000       0.08290000
O        0.66410000      -0.46440000       1.24000000
C       -1.40870000      -0.48980000      -0.04310000
O       -2.09730000       0.07350000      -1.14810000
C       -1.40660000      -2.02370000      -0.15170000
C       -2.79650000      -2.62340000       0.03960000
O       -0.90490000      -2.28550000      -1.47090000
H        1.06860000       1.96970000       0.14580000
H       -0.43400000       1.99100000      -0.81550000
H       -0.51530000       1.98970000       0.94910000
H        0.60970000      -0.30200000      -0.76290000
H        0.29160000      -0.02000000       2.00980000
H       -1.96860000      -0.20090000       0.85790000
H       -1.82040000      -0.45380000      -1.91020000
H       -0.71040000      -2.41860000       0.59880000
H       -3.50860000      -2.15810000      -0.64740000
H       -2.78560000      -3.70470000      -0.14150000
H       -3.14810000      -2.46620000       1.06450000
H       -1.02790000      -3.21890000      -1.66470000
