18
Properties=species:S:1:pos:R:3 gdb_83904=T pbc="F F F"
C       -0.14850000       1.54370000       0.04160000
N        0.09530000       0.10370000       0.05780000
C        1.34010000      -0.52480000      -0.32410000
C        2.64540000       0.25290000      -0.32920000
N        2.64300000       0.98210000       0.94410000
C        1.87860000       0.22160000       1.93760000
C        0.86070000      -0.55920000       1.10690000
C        0.24900000      -1.71130000       1.72550000
N       -0.22400000      -2.63170000       2.24110000
H        0.71060000       2.15290000       0.34100000
H       -0.45090000       1.81810000      -0.97350000
H       -0.99270000       1.75190000       0.70540000
H        1.25350000      -1.38390000      -0.98330000
H        3.46870000      -0.47350000      -0.43540000
H        2.71720000       0.95550000      -1.16900000
H        3.57300000       1.21580000       1.26560000
H        2.47390000      -0.50610000       2.51230000
H        1.40220000       0.89950000       2.65610000
