21
Properties=species:S:1:pos:R:3 gdb_63003=T pbc="F F F"
C        0.08780000       1.52560000       0.01200000
C       -0.00710000      -0.00510000       0.00180000
C       -1.47180000      -0.47450000      -0.00050000
C        0.70270000      -0.62930000      -1.21800000
N        2.13050000      -0.30180000      -1.37350000
C        1.74280000      -1.59290000      -0.76760000
C        1.74370000      -1.60300000       0.74780000
N        2.13210000      -0.32020000       1.37060000
C        0.70420000      -0.64560000       1.21230000
H        1.13550000       1.83080000       0.01350000
H       -0.40180000       1.95450000      -0.86960000
H       -0.40080000       1.94270000       0.89990000
H       -2.00220000      -0.09820000      -0.88170000
H       -1.54040000      -1.56820000      -0.00780000
H       -2.00120000      -0.11010000       0.88640000
H        0.11040000      -0.79800000      -2.11410000
H        2.40060000      -0.46100000      -2.34180000
H        1.95360000      -2.51510000      -1.29850000
H        1.95510000      -2.53230000       1.26610000
H        2.40340000      -0.49240000       2.33630000
H        0.11280000      -0.82640000       2.10680000
