18
Properties=species:S:1:pos:R:3 gdb_12633=T pbc="F F F"
C       -0.06280000       1.51750000       0.00790000
C        0.01490000      -0.01230000       0.00480000
C        0.87910000      -0.55620000      -1.18310000
O        0.94690000       0.27470000      -2.33270000
C        2.21580000      -0.84170000      -0.53990000
C        2.13950000      -0.84840000       0.78930000
C        0.73790000      -0.56850000       1.27810000
O        0.67330000       0.25090000       2.43620000
H        0.93160000       1.98030000       0.06730000
H       -0.54040000       1.87640000      -0.90660000
H       -0.64210000       1.86750000       0.86540000
H       -1.00420000      -0.40450000      -0.05570000
H        0.43910000      -1.48740000      -1.56190000
H        1.43920000       1.06730000      -2.09440000
H        3.09570000      -1.05800000      -1.13650000
H        2.94550000      -1.07110000       1.48040000
H        0.25800000      -1.50320000       1.59490000
H        1.18910000       1.04550000       2.26370000
