24
Properties=species:S:1:pos:R:3 gdb_59063=T pbc="F F F"
C       -5.67290000      -4.25120000       0.01940000
C       -4.38630000      -4.07340000      -0.78940000
O       -4.64430000      -4.14230000      -2.19280000
C       -3.68640000      -2.76740000      -0.44870000
N       -2.74220000      -2.58650000       0.66000000
C       -2.39300000      -3.68740000       1.54400000
C       -2.23570000      -2.50850000      -0.71880000
C       -1.35000000      -3.59180000      -1.30860000
C       -1.82050000      -1.10740000      -1.13140000
H       -6.18260000      -5.17180000      -0.27720000
H       -5.46200000      -4.29510000       1.09280000
H       -6.35540000      -3.40910000      -0.15030000
H       -3.73030000      -4.92550000      -0.59740000
H       -5.20870000      -3.39510000      -2.42110000
H       -4.36490000      -1.91460000      -0.55910000
H       -2.28560000      -4.67540000       1.07420000
H       -1.44360000      -3.45050000       2.03550000
H       -3.15690000      -3.76880000       2.32480000
H       -1.39240000      -3.55050000      -2.40150000
H       -0.30700000      -3.43440000      -1.00990000
H       -1.63300000      -4.60200000      -1.01210000
H       -0.78800000      -0.90160000      -0.82560000
H       -1.87750000      -0.98620000      -2.21930000
H       -2.46510000      -0.36120000      -0.66060000
