25
Properties=species:S:1:pos:R:3 gdb_117713=T pbc="F F F"
C        0.03960000       1.63620000       0.13620000
C        0.07120000       0.09440000       0.12200000
C        0.82710000      -0.41750000       1.36500000
C       -1.37080000      -0.47380000       0.09660000
C       -2.28620000      -0.12380000       1.26650000
O       -3.53560000      -0.75590000       1.01210000
C        0.75290000      -0.41860000      -1.17230000
C        2.20300000      -0.00860000      -1.41430000
O        2.59390000      -0.59680000      -2.64980000
H        1.04900000       2.05850000       0.12970000
H       -0.49300000       2.02900000      -0.73710000
H       -0.45910000       2.01930000       1.03170000
H        0.34750000      -0.08640000       2.29110000
H        0.86590000      -1.51240000       1.38130000
H        1.85620000      -0.04630000       1.39010000
H       -1.87070000      -0.13920000      -0.82090000
H       -1.32280000      -1.56820000       0.03530000
H       -1.85750000      -0.47830000       2.21620000
H       -2.41200000       0.96630000       1.35010000
H       -4.12880000      -0.54800000       1.73970000
H        0.71690000      -1.51500000      -1.18470000
H        0.16990000      -0.08490000      -2.03970000
H        2.29570000       1.08710000      -1.45880000
H        2.84880000      -0.35950000      -0.59510000
H        3.50720000      -0.35020000      -2.82180000
