20
Properties=species:S:1:pos:R:3 gdb_9967=T pbc="F F F"
C       -0.33820000       1.26960000      -0.12440000
O        0.09890000      -0.07950000      -0.01430000
C        0.72250000      -0.58930000      -1.17200000
C        1.95000000       0.15050000      -1.64960000
C        0.67110000      -2.10410000      -1.26500000
C        0.12620000      -2.96900000      -0.15000000
C       -0.24280000      -1.25340000      -2.13360000
O       -1.61200000      -1.18490000      -1.86620000
H        0.50420000       1.97220000      -0.14600000
H       -0.95260000       1.42540000      -1.02090000
H       -0.93910000       1.47570000       0.76480000
H        2.70810000       0.19490000      -0.85930000
H        2.38650000      -0.36730000      -2.50800000
H        1.72390000       1.17390000      -1.96720000
H        1.52130000      -2.53810000      -1.78680000
H       -0.72650000      -2.50610000       0.34860000
H       -0.19990000      -3.93770000      -0.54250000
H        0.89070000      -3.15250000       0.61190000
H       -0.05620000      -1.20370000      -3.20220000
H       -1.69480000      -0.88570000      -0.95200000
