18
Properties=species:S:1:pos:R:3 gdb_66772=T pbc="F F F"
C       -0.06930000       1.51710000       0.01440000
C       -0.00930000       0.02130000       0.00530000
C        0.66970000      -0.83400000      -1.10190000
C        2.04230000      -1.23240000      -0.55190000
O        1.89790000      -1.18730000       0.88140000
C        0.55180000      -0.84780000       1.15450000
C       -0.51470000      -1.85110000       0.71980000
C       -0.44500000      -1.82640000      -0.77210000
N       -1.30740000      -0.83240000      -0.05730000
H        0.93880000       1.93880000       0.09710000
H       -0.52690000       1.89880000      -0.90400000
H       -0.66110000       1.87780000       0.86200000
H        0.65560000      -0.42980000      -2.11400000
H        2.33670000      -2.24260000      -0.86350000
H        2.83680000      -0.53590000      -0.84960000
H        0.47150000      -0.46780000       2.17300000
H       -0.99750000      -2.64030000       1.28330000
H       -0.86980000      -2.60490000      -1.39460000
