22
Properties=species:S:1:pos:R:3 gdb_116364=T pbc="F F F"
C       -0.00040000       1.54700000       0.24150000
C       -0.06280000       0.03600000      -0.00830000
C        0.68340000      -0.45460000      -1.26630000
C        0.78960000      -1.98330000      -1.27450000
C        1.79560000      -2.52160000      -2.28080000
O        1.42340000      -2.43810000      -3.65850000
C        1.14800000      -1.24250000      -4.24940000
N        0.61560000      -0.17750000      -3.84150000
C        0.00560000       0.06510000      -2.54690000
H        1.03710000       1.89700000       0.28310000
H       -0.51260000       2.12020000      -0.53640000
H       -0.47330000       1.80000000       1.19560000
H        0.36270000      -0.47890000       0.86230000
H       -1.11180000      -0.28650000      -0.06320000
H        1.70500000      -0.04550000      -1.23380000
H        1.11600000      -2.33300000      -0.28630000
H       -0.19390000      -2.43590000      -1.45920000
H        2.75830000      -2.00680000      -2.14990000
H        1.96180000      -3.58990000      -2.11830000
H        1.43650000      -1.31130000      -5.30000000
H       -1.01350000      -0.35300000      -2.58370000
H       -0.12090000       1.14890000      -2.46730000
