17
Properties=species:S:1:pos:R:3 gdb_53220=T pbc="F F F"
C        0.02490000       1.53990000      -0.10090000
C        0.00420000       0.08490000      -0.04980000
C       -0.00580000      -1.11850000      -0.00850000
C       -0.03500000      -2.57770000       0.05160000
C        0.69430000      -3.19840000       1.27390000
C       -0.31390000      -4.17340000       1.90280000
O       -0.09000000      -4.93020000       2.81740000
C       -1.59440000      -3.99930000       1.17560000
C       -1.45070000      -3.12770000       0.17440000
H        0.80460000       1.94840000       0.55120000
H        0.22030000       1.90010000      -1.11680000
H       -0.93240000       1.96280000       0.22310000
H        0.40350000      -2.96890000      -0.87810000
H        1.61580000      -3.72140000       1.00830000
H        0.95350000      -2.43350000       2.01070000
H       -2.49350000      -4.53660000       1.44880000
H       -2.22550000      -2.81140000      -0.51490000
