19
Properties=species:S:1:pos:R:3 gdb_72302=T pbc="F F F"
C       -0.12400000       1.64020000      -0.28340000
C       -0.10950000       0.16900000      -0.00560000
C        0.46130000      -0.99930000      -0.77900000
C        1.53660000      -1.28950000       0.32550000
C        0.48160000      -0.59450000       1.19760000
C       -0.43580000      -1.38060000       1.79850000
C       -1.68570000      -1.44760000       0.93550000
C       -1.09160000      -0.87410000      -0.36950000
O       -1.93410000      -0.61890000      -1.44710000
H        0.88580000       2.06460000      -0.26490000
H       -0.55860000       1.83030000      -1.26930000
H       -0.72420000       2.17840000       0.45880000
H        0.66490000      -1.00540000      -1.84810000
H        1.78820000      -2.32170000       0.58660000
H        2.44940000      -0.72400000       0.10220000
H       -0.14840000      -2.23500000       2.40580000
H       -2.01260000      -2.49380000       0.86790000
H       -2.56440000      -0.85630000       1.22910000
H       -2.16900000      -1.45890000      -1.85600000
