20
Properties=species:S:1:pos:R:3 gdb_81787=T pbc="F F F"
C       -0.09880000       1.53110000       0.07390000
C        0.13020000       0.05430000       0.00210000
N       -0.75310000      -0.92140000       0.70940000
C        0.70990000      -0.90240000       0.98890000
C        1.31850000      -1.76550000      -0.13110000
O        0.88880000      -3.09540000      -0.20880000
C        0.72470000      -0.74290000      -1.14560000
C        0.14280000      -1.05280000      -2.48670000
C        1.40670000      -0.22660000      -2.37500000
H        0.78850000       2.07970000      -0.25820000
H       -0.93880000       1.83650000      -0.56130000
H       -0.32460000       1.84520000       1.09870000
H       -1.20900000      -0.42470000       1.47480000
H        1.08090000      -0.73930000       1.99400000
H        2.41180000      -1.77340000      -0.13030000
H       -0.06860000      -3.05680000      -0.07330000
H        0.23150000      -2.07860000      -2.83000000
H       -0.77310000      -0.55330000      -2.78580000
H        1.33940000       0.83430000      -2.59700000
H        2.34980000      -0.68040000      -2.66430000
