23
Properties=species:S:1:pos:R:3 gdb_102464=T pbc="F F F"
C        0.22470000       1.35780000      -0.17630000
C       -0.00060000      -0.15700000      -0.19390000
C       -1.46650000      -0.58440000       0.07700000
C       -2.43440000      -0.18990000      -1.04770000
C       -3.90590000      -0.44890000      -0.70910000
C       -1.47690000      -2.09070000       0.29050000
O       -1.71990000      -2.92170000      -0.55000000
O       -1.12960000      -2.40290000       1.55860000
C       -1.04220000      -3.80400000       1.84380000
H        1.28580000       1.58850000      -0.31300000
H       -0.32550000       1.86780000      -0.97220000
H       -0.08960000       1.79200000       0.77920000
H        0.31410000      -0.57240000      -1.15940000
H        0.63770000      -0.61880000       0.56740000
H       -1.77990000      -0.12050000       1.02060000
H       -2.29740000       0.87240000      -1.27420000
H       -2.16070000      -0.74890000      -1.94900000
H       -4.08800000      -1.51320000      -0.53420000
H       -4.21080000       0.10110000       0.18850000
H       -4.55730000      -0.13160000      -1.52920000
H       -2.00430000      -4.29350000       1.67240000
H       -0.29050000      -4.28200000       1.21020000
H       -0.75840000      -3.87700000       2.89380000
