18
Properties=species:S:1:pos:R:3 gdb_108756=T pbc="F F F"
C       -0.33660000       1.49350000      -0.21200000
C       -0.04990000       0.06870000       0.09810000
O        0.02430000      -0.74330000      -1.03500000
C        0.29710000      -2.03910000      -0.63560000
O        0.41250000      -2.92920000      -1.42160000
C        0.39910000      -2.04180000       0.88360000
C        0.14720000      -0.60160000       1.23800000
C        0.15710000      -0.08380000       2.64000000
N        1.44490000      -0.38530000       3.28630000
H        2.17700000       0.17710000       2.86190000
H        1.40870000      -0.12050000       4.26610000
H        1.38210000      -2.40530000       1.19980000
H        0.42720000       1.90110000      -0.88340000
H       -1.30010000       1.58980000      -0.72490000
H       -0.36470000       2.09630000       0.69690000
H       -0.33810000      -2.73900000       1.30040000
H       -0.11020000       0.98520000       2.64390000
H       -0.61880000      -0.59760000       3.22480000
