13
Properties=species:S:1:pos:R:3 gdb_129342=T pbc="F F F"
N       -0.17920000       1.32160000       0.01060000
C       -0.00380000       0.07840000       0.00270000
O       -1.13130000      -0.71430000       0.00650000
C       -1.01800000      -2.05800000      -0.00100000
C       -2.21500000      -2.79860000       0.00280000
N       -2.19420000      -4.11740000      -0.00400000
N       -1.01180000      -4.75040000      -0.01470000
C        0.08170000      -4.00280000      -0.01790000
N        0.14970000      -2.66200000      -0.01150000
H        0.72050000       1.79960000       0.00690000
H        0.92320000      -0.49250000      -0.00670000
H       -3.18160000      -2.30660000       0.01140000
H        1.02570000      -4.53990000      -0.02660000
