21
Properties=species:S:1:pos:R:3 gdb_95971=T pbc="F F F"
C        0.31410000       1.16490000      -0.04890000
C        0.10500000      -0.32700000       0.11400000
O        1.04760000      -1.09660000       0.12640000
C       -1.33370000      -0.80320000       0.22390000
C       -1.91960000      -0.99140000      -1.22120000
C       -2.45530000      -2.44200000      -1.27000000
C       -1.58540000      -3.19520000      -0.26020000
C       -1.48090000      -2.20390000       0.91160000
O       -0.51560000      -2.50830000       1.88640000
H        1.35660000       1.37620000      -0.28970000
H       -0.34420000       1.57140000      -0.82400000
H        0.04840000       1.66910000       0.88810000
H       -1.90450000      -0.04350000       0.76620000
H       -2.68890000      -0.24990000      -1.44950000
H       -1.12830000      -0.86750000      -1.96850000
H       -3.50350000      -2.46570000      -0.94900000
H       -2.41830000      -2.86050000      -2.27910000
H       -1.99810000      -4.15880000       0.04910000
H       -0.58290000      -3.37080000      -0.66920000
H       -2.43880000      -2.20150000       1.44670000
H        0.34280000      -2.40650000       1.45140000
