18
Properties=species:S:1:pos:R:3 gdb_84585=T pbc="F F F"
C        0.04930000       1.60660000      -0.15020000
C        0.00280000       0.07890000      -0.01170000
C        0.60220000      -0.66540000      -1.18830000
C        1.48340000      -1.60660000      -0.84640000
C        1.66610000      -1.66410000       0.63820000
O        2.88450000      -0.95990000       1.10380000
C        2.13040000       0.09950000       1.56050000
N        2.48660000       1.16990000       2.11110000
C        0.79000000      -0.51230000       1.18890000
H        1.07480000       1.96470000      -0.26640000
H       -0.53270000       1.92790000      -1.02030000
H       -0.36890000       2.09050000       0.73690000
H       -1.05210000      -0.21240000       0.09090000
H        0.31730000      -0.42600000      -2.20840000
H        2.02380000      -2.24990000      -1.53040000
H        1.62410000      -2.65450000       1.09550000
H        3.50350000       1.21680000       2.20060000
H        0.16470000      -0.72730000       2.05550000
