23
Properties=species:S:1:pos:R:3 gdb_72218=T pbc="F F F"
C        0.02060000       1.57170000       0.01650000
C       -0.02320000       0.06000000       0.01670000
C        0.44380000      -0.66680000      -1.28240000
C       -0.86800000      -1.51750000      -1.31580000
C       -0.74580000      -3.00680000      -0.98070000
C       -0.40880000      -3.07380000       0.53310000
C       -0.78010000      -1.69350000       1.13280000
C        0.40010000      -0.68630000       1.30640000
C       -1.34070000      -0.80160000      -0.02350000
H        1.05620000       1.93520000       0.03050000
H       -0.46140000       1.98750000      -0.87610000
H       -0.48680000       1.98750000       0.89480000
H        0.52630000       0.01270000      -2.13540000
H        1.38170000      -1.22750000      -1.20560000
H       -1.46670000      -1.33890000      -2.21190000
H       -1.70760000      -3.49810000      -1.17130000
H       -0.00140000      -3.51780000      -1.60100000
H       -0.95860000      -3.88460000       1.02000000
H        0.65390000      -3.28430000       0.69400000
H       -1.41150000      -1.78630000       2.01800000
H        1.41190000      -1.10740000       1.33240000
H        0.26840000      -0.05630000       2.19200000
H       -2.34870000      -0.39250000       0.05400000
