21
Properties=species:S:1:pos:R:3 gdb_111511=T pbc="F F F"
C        1.01570000       1.33720000       0.23140000
O        0.01210000       0.74560000      -0.56000000
C        0.43550000      -0.38830000      -1.28330000
C        0.71800000      -1.64080000      -0.46370000
O       -0.45600000      -2.33500000      -0.02070000
C        0.21110000      -2.80300000      -1.20050000
C       -0.43860000      -2.34570000      -2.49180000
C       -0.65390000      -0.81590000      -2.31400000
C       -2.08050000      -0.46550000      -1.87160000
H        1.34800000       0.68030000       1.04850000
H        1.89720000       1.61340000      -0.36950000
H        0.58910000       2.24360000       0.66790000
H        1.37340000      -0.14710000      -1.81820000
H        1.57190000      -1.69640000       0.20700000
H        0.66210000      -3.78920000      -1.11810000
H        0.24310000      -2.56190000      -3.32350000
H       -1.37660000      -2.87210000      -2.69580000
H       -0.45820000      -0.30340000      -3.26080000
H       -2.33930000      -0.97590000      -0.94230000
H       -2.18500000       0.60960000      -1.71340000
H       -2.79190000      -0.77060000      -2.64670000
