18
Properties=species:S:1:pos:R:3 gdb_75151=T pbc="F F F"
C        0.45890000       1.47130000       0.08290000
C        0.06340000       0.03430000      -0.03290000
C        0.12250000      -0.74350000      -1.11460000
C       -0.39810000      -2.13380000      -0.86580000
C       -0.49390000      -2.19910000       0.69130000
O        0.67450000      -2.77100000       1.26390000
C       -0.51300000      -0.71630000       1.14750000
C       -1.68320000      -2.95180000       1.13960000
N       -2.59970000      -3.56820000       1.48070000
H        1.23870000       1.60590000       0.84280000
H        0.83520000       1.86240000      -0.86590000
H       -0.39050000       2.09220000       0.39500000
H        0.47820000      -0.42560000      -2.08840000
H       -1.37680000      -2.29600000      -1.33540000
H        0.26410000      -2.92770000      -1.23160000
H        0.74690000      -3.68290000       0.95930000
H        0.07860000      -0.61940000       2.06360000
H       -1.53000000      -0.37740000       1.37960000
