16
Properties=species:S:1:pos:R:3 gdb_6951=T pbc="F F F"
C        0.05690000       1.55230000       0.01330000
C       -0.03540000       0.02160000      -0.03840000
O       -1.38860000      -0.40130000      -0.03640000
C        0.72690000      -0.58270000      -1.23490000
C        1.94610000      -1.21780000      -0.61400000
C        1.93010000      -1.21140000       0.72680000
C        0.68410000      -0.58040000       1.19320000
O        0.21520000      -0.54210000       2.31010000
H        1.09530000       1.89600000      -0.04530000
H       -0.50500000       1.98100000      -0.82150000
H       -0.37220000       1.91730000       0.95150000
H       -1.66650000      -0.38470000       0.89040000
H        0.10200000      -1.33620000      -1.72770000
H        0.99520000       0.15780000      -1.99650000
H        2.73610000      -1.64740000      -1.22150000
H        2.66900000      -1.63760000       1.39280000
