21
Properties=species:S:1:pos:R:3 gdb_56252=T pbc="F F F"
C        0.23990000       1.48820000      -0.05480000
C        0.11290000      -0.02080000       0.07030000
O        0.15070000      -0.57770000       1.14320000
C       -0.06750000      -0.79020000      -1.23390000
C       -0.01610000      -2.30790000      -1.06860000
C       -0.29040000      -3.06030000      -2.37690000
C       -0.19810000      -4.55680000      -2.20420000
C        0.31640000      -5.44370000      -3.25400000
O        1.12040000      -5.10810000      -2.12170000
H        1.17670000       1.74060000      -0.56560000
H       -0.57310000       1.90150000      -0.66150000
H        0.23610000       1.94490000       0.93560000
H       -1.03020000      -0.47580000      -1.66560000
H        0.68850000      -0.44180000      -1.95150000
H        0.96650000      -2.60010000      -0.68340000
H       -0.73940000      -2.60760000      -0.30240000
H       -1.29190000      -2.80800000      -2.75270000
H        0.42630000      -2.75200000      -3.14820000
H       -0.89460000      -4.98540000      -1.48000000
H       -0.01530000      -6.48010000      -3.30360000
H        0.64360000      -5.01740000      -4.20190000
