18
Properties=species:S:1:pos:R:3 gdb_78737=T pbc="F F F"
C       -0.04150000       1.49050000       0.02250000
C        0.03030000      -0.03310000       0.03720000
C        0.84080000      -0.61150000      -1.11480000
N        2.12200000      -0.57880000      -0.36400000
C        1.18260000      -0.60860000       0.89680000
C        1.07120000      -2.13980000       0.79670000
C        1.44850000      -1.91690000      -0.65420000
C        2.06270000      -2.86700000      -1.59720000
O        2.08750000      -4.06200000      -1.42750000
H        0.94740000       1.92900000      -0.14370000
H       -0.70740000       1.84520000      -0.77100000
H       -0.42790000       1.86750000       0.97510000
H       -0.96090000      -0.46610000       0.21740000
H        0.79830000      -0.34900000      -2.16750000
H        1.51240000      -0.11100000       1.80720000
H        1.87580000      -2.65360000       1.32660000
H        0.10990000      -2.60360000       1.03540000
H        2.51870000      -2.39050000      -2.49430000
