19
Properties=species:S:1:pos:R:3 gdb_100512=T pbc="F F F"
C        0.08170000       1.54510000      -0.07130000
C        0.03600000       0.02480000       0.09060000
C       -1.41550000      -0.50800000       0.01020000
O       -2.03250000      -0.14470000      -1.20310000
C       -1.41910000      -2.02170000       0.14210000
O       -1.63280000      -2.72270000      -0.82920000
C       -1.15180000      -2.66460000       1.49130000
N       -1.00720000      -4.01810000       1.40120000
N       -1.08730000      -1.90000000       2.51700000
H        1.11500000       1.90530000      -0.06560000
H       -0.38530000       1.84480000      -1.01250000
H       -0.45200000       2.04250000       0.74590000
H        0.62210000      -0.45490000      -0.70390000
H        0.46580000      -0.27450000       1.05070000
H       -1.98510000      -0.08340000       0.84490000
H       -2.02000000      -0.93980000      -1.75600000
H       -1.27500000      -4.44010000       0.52480000
H       -1.04860000      -4.58370000       2.23180000
H       -0.92510000      -2.42890000       3.37680000
