23
Properties=species:S:1:pos:R:3 gdb_116036=T pbc="F F F"
C        0.05990000       1.61760000       0.03980000
C       -0.01760000       0.08850000       0.02940000
C        0.68690000      -0.54740000       1.22450000
O       -0.03140000      -0.16040000       2.39570000
C        0.67220000      -0.43870000       3.58930000
C        1.29350000      -1.80720000       3.59990000
C        1.35030000      -2.55970000       2.50410000
C        0.81260000      -2.08480000       1.17410000
C       -0.50360000      -2.80670000       0.83070000
H        1.09850000       1.96240000      -0.02010000
H       -0.48280000       2.04670000      -0.80790000
H       -0.37300000       2.01510000       0.96130000
H       -1.06620000      -0.22810000       0.03000000
H        0.43340000      -0.30730000      -0.88930000
H        1.71060000      -0.13640000       1.28640000
H        1.45030000       0.32780000       3.76780000
H       -0.05560000      -0.34080000       4.40430000
H        1.70030000      -2.15140000       4.54730000
H        1.77890000      -3.55860000       2.54220000
H        1.55100000      -2.32830000       0.39640000
H       -1.29710000      -2.48530000       1.51150000
H       -0.82250000      -2.60550000      -0.19620000
H       -0.38780000      -3.89020000       0.93670000
