21
Properties=species:S:1:pos:R:3 gdb_88391=T pbc="F F F"
C        0.09230000       1.22990000      -0.53140000
C        0.66860000      -0.14840000      -0.26670000
C        2.15500000      -0.41100000      -0.35210000
C        1.44250000      -0.57080000       0.96560000
C        1.76930000       0.29390000       2.17550000
C        3.08510000      -0.16100000       2.82710000
O        1.95380000       1.67760000       1.88660000
C        0.67710000       0.16630000       3.24610000
O       -0.07680000      -0.76230000       3.36980000
H        0.83270000       2.02200000      -0.39130000
H       -0.24810000       1.30060000      -1.57000000
H       -0.77750000       1.44080000       0.10370000
H        0.03700000      -0.94380000      -0.65470000
H        2.51890000      -1.29280000      -0.86830000
H        2.78860000       0.46480000      -0.45410000
H        1.23530000      -1.59000000       1.27680000
H        3.90540000       0.01440000       2.12610000
H        3.28250000       0.41090000       3.73880000
H        3.04710000      -1.22460000       3.07480000
H        1.11870000       2.03760000       1.57170000
H        0.65420000       1.04290000       3.93620000
