20
Properties=species:S:1:pos:R:3 gdb_105399=T pbc="F F F"
C        0.22130000       1.10740000      -0.59480000
N        0.35640000      -0.28170000      -0.18160000
C        1.68100000      -0.88990000      -0.17610000
C        0.96090000      -0.63330000       1.10740000
C        1.50040000       0.43260000       2.03490000
O        0.39550000       1.03010000       2.70360000
C        0.26440000      -1.78480000       1.83320000
C       -0.53990000      -2.63770000       0.86870000
O       -0.12610000      -3.65600000       0.37340000
H        1.11830000       1.72250000      -0.42570000
H        0.00030000       1.12970000      -1.66650000
H       -0.61320000       1.56370000      -0.05580000
H        1.74770000      -1.90100000      -0.56980000
H        2.53360000      -0.24960000      -0.40270000
H        2.19090000      -0.04040000       2.75080000
H        2.07560000       1.18000000       1.47220000
H        0.73460000       1.61420000       3.38810000
H        1.01040000      -2.42010000       2.32260000
H       -0.40300000      -1.36490000       2.59380000
H       -1.55660000      -2.25870000       0.63790000
