19
Properties=species:S:1:pos:R:3 gdb_36912=T pbc="F F F"
C       -0.08470000       1.48770000       0.11240000
C        0.09100000      -0.02380000       0.08910000
C       -1.24100000      -0.82130000       0.05010000
N       -1.20170000      -1.58700000      -1.20830000
C       -0.09790000      -1.28950000      -1.75240000
O        0.75260000      -0.42760000      -1.14700000
N        1.18880000       2.17490000       0.25300000
C        1.88630000       2.51720000      -0.98370000
C        1.22170000       3.57180000      -0.17140000
H       -0.64430000       1.79350000      -0.79140000
H       -0.70610000       1.74140000       0.98110000
H        0.74780000      -0.32480000       0.90970000
H       -1.34660000      -1.50370000       0.89890000
H       -2.11620000      -0.16030000       0.05300000
H        0.25730000      -1.67350000      -2.70260000
H        2.96560000       2.40040000      -0.96120000
H        1.41760000       2.23640000      -1.92370000
H        0.30630000       4.00600000      -0.57110000
H        1.80450000       4.24010000       0.45580000
