19
Properties=species:S:1:pos:R:3 gdb_86991=T pbc="F F F"
O        0.52950000       0.16770000      -0.86660000
C       -0.20730000      -0.44230000       0.15870000
C        0.14230000      -0.16370000       1.64790000
C       -1.36810000      -0.21090000       1.96610000
C       -1.66400000       0.01600000       0.45240000
O       -1.69660000      -1.50950000       2.42160000
C       -3.07470000      -1.66090000       2.70940000
C       -3.33750000      -3.01550000       3.17680000
C       -3.58190000      -4.12560000       3.56360000
H        0.52650000       1.11870000      -0.71390000
H       -0.17520000      -1.51400000      -0.04990000
H        0.77240000      -0.87780000       2.18090000
H        0.54350000       0.84700000       1.77790000
H       -1.76060000       0.54300000       2.66240000
H       -1.79560000       1.08130000       0.23110000
H       -2.48500000      -0.54360000      -0.00190000
H       -3.38440000      -0.93450000       3.48050000
H       -3.68920000      -1.45390000       1.81830000
H       -3.79100000      -5.10900000       3.90550000
