15
Properties=species:S:1:pos:R:3 gdb_52979=T pbc="F F F"
C        0.01840000       1.47510000      -0.07710000
C       -0.03300000       0.02320000      -0.02120000
C       -0.08280000      -1.18090000       0.00880000
C       -0.09200000      -2.59380000       0.10330000
O       -0.33330000      -3.42540000      -1.04410000
C       -1.16450000      -3.60730000       0.09150000
C       -0.37480000      -4.46690000       1.15640000
O        0.90930000      -4.76870000       0.61080000
C        0.70040000      -3.47950000       1.16780000
H        0.97560000       1.85250000       0.29860000
H       -0.09750000       1.82960000      -1.10710000
H       -0.77920000       1.92710000       0.52280000
H       -2.23660000      -3.50040000      -0.01910000
H       -0.77810000      -5.10630000       1.93070000
H        1.35920000      -3.12110000       1.94860000
