18
Properties=species:S:1:pos:R:3 gdb_40460=T pbc="F F F"
C        1.16100000       0.92950000       0.01500000
N        0.31310000       0.11550000      -0.86840000
C       -0.25290000       0.65220000       0.38150000
C       -0.61070000      -0.34890000       1.41720000
C        0.19350000      -1.64540000       1.70700000
C       -1.08260000      -2.12940000       2.39310000
C       -1.69960000      -0.85500000       2.99770000
O       -0.80460000       0.22820000       2.74970000
C       -1.95100000      -1.18260000       1.57040000
H        1.96220000       0.38470000       0.50490000
H        1.41510000       1.94290000      -0.28320000
H       -0.00730000       0.67060000      -1.65690000
H       -0.94900000       1.48560000       0.31180000
H        0.39520000      -2.19660000       0.78690000
H        1.10370000      -1.52400000       2.30360000
H       -1.32920000      -3.12270000       2.74520000
H       -2.34050000      -0.82120000       3.86840000
H       -2.83460000      -1.31990000       0.96320000
