18
Properties=species:S:1:pos:R:3 gdb_69811=T pbc="F F F"
C       -0.04630000       1.51680000       0.00250000
C        0.00170000       0.00240000       0.00370000
N       -0.77490000      -0.72350000       1.04240000
C        0.69170000      -0.72170000       1.12120000
C        1.40670000      -2.01380000       0.83750000
O        0.62630000      -3.15300000       0.51640000
C        1.39690000      -2.54650000      -0.54260000
C        0.67100000      -1.79040000      -1.58780000
C        0.03800000      -0.63970000      -1.33580000
H        0.79270000       1.94210000      -0.55820000
H       -0.97240000       1.87540000      -0.46220000
H       -0.00520000       1.91270000       1.02250000
H       -1.14380000      -0.04700000       1.70840000
H        1.16330000      -0.10400000       1.88240000
H        2.27430000      -2.21480000       1.46620000
H        2.22690000      -3.16640000      -0.87880000
H        0.68340000      -2.19400000      -2.59610000
H       -0.45980000      -0.11020000      -2.14500000
