18
Properties=species:S:1:pos:R:3 gdb_22967=T pbc="F F F"
O        0.17250000       1.37000000      -0.19590000
C        0.03890000      -0.01060000       0.10040000
C       -1.33580000      -0.56350000      -0.28800000
C       -1.45690000      -2.05290000      -0.00590000
O       -1.40320000      -2.37390000       1.41750000
C       -2.70050000      -3.01570000       1.39760000
C       -2.82840000      -2.68420000      -0.06720000
N       -3.66650000      -2.80650000      -1.00230000
O       -4.82780000      -3.45790000      -0.55450000
H       -0.42280000       1.85450000       0.38460000
H        0.81980000      -0.51520000      -0.47980000
H        0.23440000      -0.22000000       1.16170000
H       -2.12090000      -0.03180000       0.26460000
H       -1.51250000      -0.39000000      -1.35570000
H       -0.68480000      -2.61370000      -0.55310000
H       -2.64830000      -4.08570000       1.63600000
H       -3.42590000      -2.53450000       2.06530000
H       -5.36910000      -3.48450000      -1.35110000
