17
Properties=species:S:1:pos:R:3 gdb_31645=T pbc="F F F"
C       -0.01800000       1.49000000       0.02190000
N        0.01650000       0.04330000      -0.02700000
C        0.00950000      -0.76460000      -1.16550000
C        0.05260000      -2.04710000      -0.70750000
C        0.06530000      -3.31270000      -1.49850000
O        0.01980000      -2.97960000      -2.87760000
N        0.08660000      -2.07240000       0.67920000
C        0.06340000      -0.81200000       1.02420000
O        0.08160000      -0.32910000       2.28160000
H        0.85200000       1.91780000      -0.48670000
H       -0.92670000       1.87370000      -0.45310000
H       -0.00610000       1.80520000       1.06530000
H       -0.02490000      -0.35050000      -2.15750000
H        0.97150000      -3.89050000      -1.25200000
H       -0.79440000      -3.93750000      -1.20490000
H        0.03280000      -3.79800000      -3.38070000
H        0.11430000      -1.10030000       2.86070000
