18
Properties=species:S:1:pos:R:3 gdb_35643=T pbc="F F F"
N        0.57990000      -1.18340000       0.18970000
C        0.32690000      -0.05790000       0.11550000
C       -0.00100000       1.37170000       0.00470000
C       -0.95520000       1.81320000       1.14180000
C       -0.43090000       1.63330000       2.54260000
C        0.77230000       1.95130000       3.01490000
C        1.94720000       2.58950000       2.32940000
C        2.02670000       2.70680000       0.83430000
C        1.26200000       2.20410000      -0.13210000
H       -0.55910000       1.47740000      -0.93430000
H       -1.20660000       2.86480000       0.95570000
H       -1.88770000       1.25030000       1.03580000
H       -1.13860000       1.19790000       3.24350000
H        0.95530000       1.75510000       4.07000000
H        2.07790000       3.59810000       2.75600000
H        2.85910000       2.06280000       2.65400000
H        2.89350000       3.28000000       0.50770000
H        1.56340000       2.38800000      -1.15970000
