18
Properties=species:S:1:pos:R:3 gdb_36552=T pbc="F F F"
C       -0.02960000      -1.16750000       0.11140000
C        0.01390000       0.02990000       0.20570000
C        0.10410000       1.48080000       0.29890000
C        1.38720000       2.03430000      -0.37860000
C        1.48480000       3.48510000      -0.28820000
C        1.53080000       4.68680000      -0.19420000
C        1.61580000       6.11780000      -0.11340000
C        1.56650000       6.79510000       1.21800000
N        2.82280000       6.76210000       0.46440000
H       -0.08360000      -2.22530000       0.03650000
H       -0.77280000       1.94350000      -0.16810000
H        0.09310000       1.79200000       1.34970000
H        2.26300000       1.56770000       0.08740000
H        1.39730000       1.72010000      -1.42870000
H        1.21990000       6.65720000      -0.97030000
H        1.10300000       7.77460000       1.29550000
H        1.45860000       6.16280000       2.09410000
H        3.42840000       6.03670000       0.84160000
