22
Properties=species:S:1:pos:R:3 gdb_6392=T pbc="F F F"
C        0.08210000       1.55380000       0.00470000
C       -0.05360000       0.02790000       0.00650000
C       -1.49720000      -0.48910000      -0.13530000
C       -2.13910000      -0.08380000      -1.47060000
C       -1.53760000      -2.01280000       0.04640000
C       -2.92400000      -2.59400000       0.30520000
C       -3.03720000      -4.10730000       0.22720000
O       -3.87850000      -1.89940000       0.57210000
H        1.11940000       1.85290000       0.18510000
H       -0.22310000       1.99210000      -0.95010000
H       -0.53520000       2.00510000       0.78970000
H        0.56310000      -0.39530000      -0.79930000
H        0.36640000      -0.36200000       0.94320000
H       -2.10050000      -0.05460000       0.67190000
H       -1.56240000      -0.47770000      -2.31740000
H       -3.15990000      -0.46700000      -1.54180000
H       -2.18880000       1.00280000      -1.58060000
H       -1.09260000      -2.52710000      -0.81730000
H       -0.91730000      -2.31380000       0.90450000
H       -2.24650000      -4.59230000       0.80950000
H       -4.01660000      -4.42690000       0.58530000
H       -2.90940000      -4.43200000      -0.81230000
