19
Properties=species:S:1:pos:R:3 gdb_91632=T pbc="F F F"
C       -0.19330000       1.53830000      -0.04720000
C        0.04420000       0.03730000       0.03430000
O        0.82610000      -0.40640000      -1.10530000
C        1.89800000      -1.21450000      -0.57630000
C        1.26470000      -1.87240000       0.65640000
C        0.84300000      -0.51080000       1.25290000
C        2.17430000       0.25100000       1.25410000
O        3.35720000      -0.55420000       1.35450000
C        2.87640000      -0.20830000       0.04850000
H        0.74470000       2.09850000      -0.03740000
H       -0.71670000       1.78000000      -0.97670000
H       -0.81500000       1.87470000       0.78960000
H       -0.92820000      -0.47510000      -0.00300000
H        2.27480000      -1.85570000      -1.37250000
H        0.41330000      -2.49990000       0.38730000
H        1.96900000      -2.42350000       1.27540000
H        0.28130000      -0.52270000       2.18730000
H        2.26120000       1.25520000       1.65440000
H        3.51890000       0.41820000      -0.56130000
