18
Properties=species:S:1:pos:R:3 gdb_112348=T pbc="F F F"
C       -0.09180000       1.34740000       0.05180000
O        0.02960000      -0.06690000       0.01380000
C        0.66670000      -0.60950000       1.12280000
O       -0.11890000      -0.47270000       2.31350000
C       -0.43760000      -1.72310000       2.79910000
N       -1.13060000      -1.94450000       3.83370000
C        0.18070000      -2.71890000       1.91740000
C        0.83400000      -2.10170000       0.93130000
C        1.59220000      -2.65090000      -0.22620000
H        0.89200000       1.82690000       0.16180000
H       -0.53430000       1.65170000      -0.89850000
H       -0.73850000       1.66920000       0.87550000
H        1.61860000      -0.08230000       1.30780000
H       -1.44120000      -1.06570000       4.25110000
H        0.07660000      -3.78070000       2.08740000
H        1.57920000      -3.74290000      -0.23390000
H        1.16330000      -2.28340000      -1.16490000
H        2.63760000      -2.31840000      -0.20540000
