24
Properties=species:S:1:pos:R:3 gdb_58247=T pbc="F F F"
C        0.07180000       1.55080000       0.04070000
C        0.03180000       0.01730000       0.06280000
C        0.67670000      -0.53010000       1.34380000
C       -1.41140000      -0.49540000      -0.12700000
O       -2.00540000       0.04640000      -1.31010000
C       -1.50650000      -2.00990000      -0.14420000
N       -1.83680000      -2.69710000       1.11850000
C       -2.79400000      -2.74190000      -0.00150000
C       -4.13270000      -2.07110000       0.19250000
H        1.10380000       1.91540000       0.06740000
H       -0.41640000       1.94340000      -0.85360000
H       -0.44840000       1.96290000       0.91380000
H        0.61510000      -0.35210000      -0.79750000
H        0.74450000      -1.62080000       1.34080000
H        1.68860000      -0.12920000       1.46200000
H        0.09650000      -0.24080000       2.22690000
H       -2.02680000      -0.11720000       0.69600000
H       -1.51620000      -0.29780000      -2.06570000
H       -0.76140000      -2.48600000      -0.78590000
H       -1.32490000      -3.57190000       1.19380000
H       -2.84630000      -3.68110000      -0.55240000
H       -4.04320000      -1.18180000       0.81880000
H       -4.55650000      -1.77040000      -0.77060000
H       -4.83560000      -2.75480000       0.68060000
