16
Properties=species:S:1:pos:R:3 gdb_114590=T pbc="F F F"
O        0.00280000       1.37150000      -0.24600000
C        0.01500000       0.00260000       0.12920000
C       -1.40920000      -0.50090000      -0.00220000
C       -2.04010000      -0.58990000      -1.43860000
C       -2.22850000      -2.09500000      -1.22350000
O       -0.94300000      -2.65980000      -0.96550000
C       -1.62070000      -2.02480000       0.12810000
C       -1.86600000      -2.78730000       1.31210000
N       -2.06960000      -3.36100000       2.29560000
H        0.90730000       1.69750000      -0.23020000
H        0.67050000      -0.59240000      -0.52200000
H        0.35960000      -0.12970000       1.16740000
H       -2.06890000       0.04520000       0.67640000
H       -2.97830000      -0.03890000      -1.51890000
H       -1.38480000      -0.32610000      -2.27040000
H       -2.99610000      -2.76420000      -1.59350000
