19
Properties=species:S:1:pos:R:3 gdb_65122=T pbc="F F F"
O       -0.20960000       1.32340000      -0.26280000
C       -0.01190000      -0.04830000      -0.04470000
C       -0.40010000      -0.57950000       1.32700000
C       -1.30090000      -0.80970000       0.13960000
C        1.11870000      -0.64020000      -0.78810000
C        1.87890000      -0.03740000      -1.70180000
C        2.92640000      -0.98150000      -2.21150000
O        2.68370000      -2.21180000      -1.53050000
C        1.61430000      -2.05670000      -0.60730000
H        0.55920000       1.78490000       0.09210000
H        0.14430000      -1.42030000       1.74140000
H       -0.70930000       0.16810000       2.04850000
H       -2.20320000      -0.21380000       0.06960000
H       -1.37650000      -1.80800000      -0.27490000
H        1.76460000       0.97870000      -2.05430000
H        2.86010000      -1.14340000      -3.29900000
H        3.95090000      -0.63210000      -2.00160000
H        1.97350000      -2.24240000       0.41830000
H        0.83620000      -2.80810000      -0.81600000
