17
Properties=species:S:1:pos:R:3 gdb_4815=T pbc="F F F"
C        0.20070000       1.38060000       0.06040000
N        0.01600000      -0.05400000       0.00570000
C       -0.24240000      -0.78060000      -1.12960000
C       -0.22920000      -2.11610000      -0.80030000
C        0.04530000      -2.21040000       0.59460000
C        0.13600000      -3.45530000       1.42770000
O        1.04020000      -3.32670000       2.51960000
C        0.19650000      -0.91860000       1.05650000
H        1.24680000       1.66510000      -0.10410000
H       -0.41500000       1.85900000      -0.70490000
H       -0.11280000       1.75570000       1.03760000
H       -0.40390000      -0.28330000      -2.07320000
H       -0.41310000      -2.93780000      -1.47650000
H       -0.82910000      -3.69900000       1.88910000
H        0.40020000      -4.31050000       0.78470000
H        1.86780000      -2.99570000       2.15420000
H        0.41340000      -0.55170000       2.04690000
