18
Properties=species:S:1:pos:R:3 gdb_15810=T pbc="F F F"
C       -0.20050000       1.42220000      -0.38750000
C        0.03620000      -0.04190000      -0.06940000
O        0.48030000      -0.68150000      -1.27780000
C        0.75600000      -2.00050000      -1.20600000
N        0.63670000      -2.64480000      -0.11760000
C        1.19370000      -2.53520000      -2.52750000
C        0.50210000      -2.08740000      -3.77270000
N        1.87570000      -1.66420000      -3.50080000
H        0.71930000       1.90180000      -0.73480000
H       -0.96290000       1.53650000      -1.16360000
H       -0.54270000       1.94560000       0.51010000
H        0.79840000      -0.17910000       0.70410000
H       -0.87290000      -0.54060000       0.28120000
H        0.89540000      -3.62050000      -0.25090000
H        1.58360000      -3.54790000      -2.47980000
H        0.38710000      -2.79090000      -4.59210000
H       -0.29850000      -1.36290000      -3.66110000
H        1.86210000      -0.71450000      -3.13530000
