19
Properties=species:S:1:pos:R:3 gdb_53105=T pbc="F F F"
C        0.09830000       1.52770000      -0.06510000
C        0.05310000       0.07430000       0.00300000
C        0.01220000      -1.12940000       0.05110000
C        0.00560000      -2.56470000       0.09740000
C       -0.48750000      -3.31340000       1.31170000
C       -0.94170000      -2.60050000       2.56610000
C       -1.31730000      -3.36010000       0.03360000
C       -2.61190000      -2.64980000      -0.08410000
O       -3.56990000      -3.10690000      -0.66100000
H        0.75320000       1.86320000      -0.87670000
H       -0.89660000       1.94820000      -0.24890000
H        0.47630000       1.96210000       0.86700000
H        0.81590000      -3.03420000      -0.45360000
H        0.03860000      -4.24520000       1.50090000
H       -1.33090000      -1.60300000       2.35340000
H       -1.71810000      -3.17240000       3.08420000
H       -0.09740000      -2.48150000       3.25280000
H       -1.29050000      -4.28570000      -0.53140000
H       -2.65350000      -1.64750000       0.39010000
