15
Properties=species:S:1:pos:R:3 gdb_43066=T pbc="F F F"
N       -0.09140000       1.27270000      -0.06320000
C       -0.04180000       0.02130000      -0.00560000
C       -1.09110000      -1.08040000       0.04600000
O       -1.31350000      -1.65330000      -1.27160000
C       -0.18550000      -2.59510000      -1.11600000
C        1.04970000      -2.18190000      -1.88640000
C        1.68350000      -1.22820000      -1.20030000
N        1.06810000      -0.94380000       0.07470000
C        0.07780000      -2.05690000       0.29140000
H        0.84440000       1.68560000      -0.08530000
H       -2.00720000      -0.96180000       0.62450000
H       -0.52540000      -3.62230000      -1.25870000
H        1.33120000      -2.56200000      -2.85830000
H        2.55110000      -0.65240000      -1.49600000
H        0.25890000      -2.68420000       1.16100000
