14
Properties=species:S:1:pos:R:3 gdb_24324=T pbc="F F F"
N        0.00910000       1.32850000       0.00970000
C        1.26910000       1.85860000       0.00030000
C        2.14300000       0.77870000      -0.01460000
N        3.50170000       0.74330000      -0.02820000
C        4.00350000      -0.46850000      -0.04010000
C        3.20920000      -1.66210000      -0.03910000
N        1.89760000      -1.66710000      -0.02610000
C        1.34040000      -0.42750000      -0.01350000
C        0.00670000      -0.03840000       0.00190000
H       -0.82900000       1.88630000       0.02120000
H        1.44210000       2.92130000       0.00460000
H        5.08790000      -0.56010000      -0.05140000
H        3.71240000      -2.62710000      -0.04960000
H       -0.90670000      -0.60840000       0.00770000
