20
Properties=species:S:1:pos:R:3 gdb_19291=T pbc="F F F"
C       -0.09160000       1.35220000       0.00650000
O        0.25660000      -0.00840000       0.13350000
C        0.70670000      -0.59840000      -1.06260000
C        1.37520000      -1.95030000      -0.87120000
C        0.39110000      -2.95880000      -0.34730000
C        0.35220000      -2.60710000      -1.80650000
C       -0.35550000      -1.26320000      -2.03520000
C       -1.84110000      -1.15450000      -1.71100000
H        0.75980000       1.95510000      -0.34720000
H       -0.93230000       1.50860000      -0.68450000
H       -0.38470000       1.70640000       0.99810000
H        1.34860000       0.10750000      -1.60840000
H        2.44490000      -2.10730000      -0.80660000
H        0.81850000      -3.93010000      -0.11980000
H       -0.39800000      -2.65250000       0.33160000
H        0.53540000      -3.34780000      -2.57560000
H       -0.17540000      -0.90990000      -3.05560000
H       -2.04440000      -1.37270000      -0.65960000
H       -2.22170000      -0.14880000      -1.91880000
H       -2.41890000      -1.85810000      -2.32050000
