13
Properties=species:S:1:pos:R:3 gdb_2992=T pbc="F F F"
O        0.17930000       1.63450000      -0.00940000
C        0.01790000       0.25170000       0.11790000
C        0.61540000      -0.46710000      -1.08070000
O        1.12210000       0.14690000      -1.98860000
C        0.66930000      -0.25260000       1.39860000
C       -0.12040000      -0.50220000       2.60730000
O        0.32180000      -1.58350000       1.78020000
H        0.62030000       1.76570000      -0.86510000
H       -1.04950000      -0.03140000       0.15450000
H        0.56060000      -1.57190000      -1.06880000
H        1.72430000       0.00270000       1.50150000
H        0.35580000      -0.44010000       3.58370000
H       -1.19200000      -0.30970000       2.59280000
