15
Properties=species:S:1:pos:R:3 gdb_46453=T pbc="F F F"
O       -0.00040000      -0.02370000      -0.08630000
C        0.01720000       1.18110000       0.00370000
N       -1.07150000       2.00020000       0.19420000
C       -0.83580000       3.42010000       0.01250000
C        0.69710000       3.51210000      -0.02590000
C        1.43830000       2.94750000       1.16600000
C        1.23040000       2.08100000      -0.04740000
C        1.29140000       4.56200000      -0.79920000
N        1.76110000       5.41610000      -1.42230000
H       -1.99690000       1.60360000       0.23030000
H       -1.25860000       3.79100000      -0.92940000
H       -1.25630000       4.01320000       0.83270000
H        2.44030000       3.32270000       1.33590000
H        0.86250000       2.73740000       2.06120000
H        2.07180000       1.77630000      -0.65390000
