21
Properties=species:S:1:pos:R:3 gdb_123116=T pbc="F F F"
C       -0.01270000       1.30960000      -0.09430000
O        0.08290000      -0.09360000      -0.05610000
C        0.67060000      -0.57110000       1.13260000
C        0.72110000      -2.09220000       1.06170000
C        1.34350000      -2.69850000       2.30850000
O        1.34300000      -4.12750000       2.14040000
C        1.86520000      -4.83780000       3.16290000
C        1.80740000      -6.31750000       2.86760000
O        2.31050000      -4.33670000       4.16420000
H        0.97720000       1.78950000      -0.03260000
H       -0.47700000       1.58030000      -1.04560000
H       -0.63320000       1.70060000       0.72800000
H        1.68660000      -0.15490000       1.25400000
H        0.08550000      -0.24330000       2.01020000
H       -0.29490000      -2.47880000       0.93040000
H        1.29610000      -2.39100000       0.17890000
H        2.37320000      -2.35720000       2.46120000
H        0.78060000      -2.44510000       3.21340000
H        2.36200000      -6.53930000       1.95130000
H        2.23280000      -6.87100000       3.70360000
H        0.77150000      -6.62710000       2.70240000
