19
Properties=species:S:1:pos:R:3 gdb_121601=T pbc="F F F"
C       -0.09490000       1.36840000       0.08280000
O       -0.00140000      -0.03550000       0.04150000
C        0.70910000      -0.50230000      -1.08310000
C        0.73900000      -2.02100000      -1.01240000
C        1.47710000      -2.64820000      -2.16860000
O        1.99530000      -2.02020000      -3.06480000
C        1.55570000      -4.19650000      -2.17470000
C        2.29500000      -4.81660000      -3.33370000
O        1.03880000      -4.82380000      -1.28030000
H        0.89800000       1.84310000       0.13150000
H       -0.62200000       1.76930000      -0.79750000
H       -0.65710000       1.63230000       0.98170000
H        0.22880000      -0.17180000      -2.01800000
H        1.73450000      -0.09930000      -1.09680000
H        1.19920000      -2.35920000      -0.07590000
H       -0.27820000      -2.43040000      -0.98060000
H        3.32300000      -4.44170000      -3.36640000
H        2.28770000      -5.90230000      -3.23610000
H        1.83260000      -4.51370000      -4.27860000
