19
Properties=species:S:1:pos:R:3 gdb_68346=T pbc="F F F"
C        0.02340000       1.57210000       0.04200000
C        0.02560000       0.06120000       0.03460000
C        0.94810000      -0.78410000      -0.91900000
C        0.59910000      -1.92390000       0.10260000
C        0.65980000      -0.79500000       1.19190000
C       -0.90520000      -2.00900000      -0.10320000
C       -1.29560000      -0.71990000      -0.14990000
C       -2.65240000      -0.23180000      -0.33270000
O       -2.98910000       0.93390000      -0.37270000
H        1.03990000       1.95500000       0.18250000
H       -0.36980000       1.97240000      -0.89650000
H       -0.60700000       1.96340000       0.84530000
H        0.62420000      -0.91520000      -1.95440000
H        1.99870000      -0.48030000      -0.87540000
H        1.17360000      -2.84560000       0.17630000
H        1.68330000      -0.49220000       1.43460000
H        0.07040000      -0.93610000       2.10120000
H       -1.50710000      -2.90440000      -0.19000000
H       -3.40440000      -1.04730000      -0.43960000
