21
Properties=species:S:1:pos:R:3 gdb_117819=T pbc="F F F"
C       -2.33110000       1.59180000       1.20410000
C       -2.40550000       0.06150000       1.17970000
C       -1.43610000      -0.54420000       0.15480000
C       -1.37890000      -2.08340000       0.10450000
O       -0.93400000      -2.65790000       1.33970000
C       -2.70650000      -2.74790000      -0.30370000
O       -2.58140000      -4.15430000      -0.26490000
C       -0.30880000      -2.48770000      -0.91690000
O       -0.35940000      -2.18010000      -2.07770000
H       -3.02190000       2.01030000       1.94190000
H       -1.32190000       1.93440000       1.45630000
H       -2.58900000       2.01260000       0.22660000
H       -2.17740000      -0.31480000       2.18760000
H       -3.43350000      -0.24800000       0.96150000
H       -1.68650000      -0.19370000      -0.85260000
H       -0.42350000      -0.17710000       0.36650000
H       -1.44250000      -2.26390000       2.05620000
H       -3.51800000      -2.39910000       0.35460000
H       -2.95280000      -2.46530000      -1.33140000
H       -2.13230000      -4.35140000       0.56740000
H        0.53240000      -3.07220000      -0.48660000
