23
Properties=species:S:1:pos:R:3 gdb_79337=T pbc="F F F"
C       -0.12760000       1.55790000      -0.03540000
C        0.03500000       0.03820000      -0.00960000
C        0.93260000      -0.54290000      -1.10200000
C        2.34000000      -0.64140000      -0.52970000
C        2.28030000      -0.12940000       0.90500000
C        0.82180000      -0.56200000       1.19090000
C        0.87080000      -2.05700000       0.79880000
C        1.45700000      -1.87770000      -0.60390000
C        1.74350000      -3.04630000      -1.50640000
H        0.83600000       2.07530000      -0.04940000
H       -0.67700000       1.87170000      -0.92970000
H       -0.68870000       1.91050000       0.83720000
H       -0.96300000      -0.41850000      -0.04980000
H        0.75890000      -0.36030000      -2.15570000
H        3.21660000      -0.53820000      -1.15680000
H        2.99470000      -0.63300000       1.56560000
H        2.44150000       0.94890000       0.99290000
H        0.43150000      -0.33090000       2.18250000
H        1.51950000      -2.64870000       1.45530000
H       -0.12160000      -2.52290000       0.78570000
H        0.83300000      -3.61860000      -1.72170000
H        2.16040000      -2.71810000      -2.46440000
H        2.46520000      -3.73530000      -1.05110000
