15
Properties=species:S:1:pos:R:3 gdb_75997=T pbc="F F F"
C       -0.07400000       1.38640000      -0.06760000
N       -0.00220000      -0.05370000      -0.01130000
C       -1.04810000      -1.07160000      -0.05550000
C       -1.77430000      -1.13580000      -1.32250000
N       -2.31440000      -1.18810000      -2.34310000
C        0.11940000      -2.15270000       0.07590000
O        0.21690000      -3.18300000      -0.83950000
C        1.07010000      -0.92010000      -0.01100000
O        2.25410000      -0.73390000      -0.06120000
H        0.95140000       1.76270000      -0.07260000
H       -0.58190000       1.72220000      -0.97850000
H       -0.60050000       1.79420000       0.80250000
H       -1.75450000      -1.03900000       0.78090000
H        0.11560000      -2.60260000       1.07150000
H        0.35140000      -2.82320000      -1.72440000
