18
Properties=species:S:1:pos:R:3 gdb_95737=T pbc="F F F"
C       -0.04620000       1.54830000       0.00090000
C        0.04050000       0.02130000      -0.01930000
C        0.75010000      -0.51460000      -1.26920000
C        1.02850000      -1.99810000      -1.08030000
O        1.77580000      -2.23460000       0.12210000
C        1.46660000      -1.43320000       1.17940000
N        0.68820000      -0.42960000       1.21410000
C        2.16360000      -1.85780000       2.36140000
C        2.74950000      -2.21560000       3.34730000
H        0.95600000       1.98910000      -0.00180000
H       -0.59020000       1.91980000      -0.87370000
H       -0.55930000       1.88460000       0.90520000
H       -0.98650000      -0.37430000      -0.00330000
H        0.14450000      -0.35900000      -2.16800000
H        1.69750000       0.01870000      -1.41320000
H        0.09100000      -2.56670000      -1.02150000
H        1.63380000      -2.41770000      -1.88700000
H        3.26300000      -2.52390000       4.22460000
