17
Properties=species:S:1:pos:R:3 gdb_22898=T pbc="F F F"
C        0.22980000       1.51030000      -0.14770000
C       -0.07480000       0.02780000       0.10200000
N        0.34240000      -0.80490000      -1.05500000
C        1.71960000      -1.24490000      -0.79230000
C        1.88380000      -1.30120000       0.73420000
O        2.77110000      -1.84040000       1.34480000
C        0.70530000      -0.53350000       1.27910000
N        0.32800000      -0.32850000       2.48320000
O        1.12740000      -0.93100000       3.43480000
H        1.29950000       1.67410000      -0.31460000
H       -0.30940000       1.85690000      -1.03310000
H       -0.07190000       2.10870000       0.71660000
H       -1.14980000      -0.09040000       0.26010000
H       -0.25390000      -1.62480000      -1.08970000
H        1.93710000      -2.21380000      -1.24720000
H        2.44460000      -0.52690000      -1.19980000
H        0.69180000      -0.67980000       4.25800000
