22
Properties=species:S:1:pos:R:3 gdb_13453=T pbc="F F F"
C        0.00120000       1.54620000      -0.10380000
C       -0.09960000       0.02330000      -0.21870000
C       -1.46420000      -0.52570000       0.22350000
C       -1.54240000      -2.03590000       0.12790000
C       -2.86160000      -2.79490000       0.11070000
C       -4.20600000      -2.10420000       0.20520000
C       -2.02800000      -2.71300000      -1.13950000
O       -2.54810000      -1.93350000      -2.18130000
H        0.98250000       1.90940000      -0.42490000
H       -0.75630000       2.04110000      -0.72190000
H       -0.15340000       1.87460000       0.93010000
H        0.09430000      -0.28150000      -1.25640000
H        0.69170000      -0.44500000       0.38140000
H       -1.65900000      -0.20990000       1.25750000
H       -2.24830000      -0.07020000      -0.38960000
H       -0.72650000      -2.54530000       0.63780000
H       -2.83140000      -3.75980000       0.61080000
H       -4.26110000      -1.23440000      -0.45090000
H       -5.00700000      -2.78860000      -0.09420000
H       -4.41300000      -1.77900000       1.23060000
H       -1.51450000      -3.61560000      -1.47120000
H       -1.81050000      -1.50760000      -2.63030000
