18
Properties=species:S:1:pos:R:3 gdb_33727=T pbc="F F F"
C        0.00620000      -1.18790000      -0.04190000
C        0.02510000       0.01500000      -0.02570000
C        0.04210000       1.45410000       0.00250000
C       -0.28000000       2.28580000       1.30940000
C        0.45420000       3.41510000       0.50930000
C        1.36750000       2.28480000      -0.03520000
C       -0.56260000       3.62350000      -0.63190000
N       -0.14110000       3.09590000      -1.95330000
C       -0.86160000       2.22410000      -1.00040000
H       -0.00400000      -2.24940000      -0.05850000
H       -1.33560000       2.43230000       1.55560000
H        0.27500000       1.93010000       2.18020000
H        0.86350000       4.29700000       0.99960000
H        2.06870000       1.92950000       0.72060000
H        1.85070000       2.41990000      -0.99960000
H       -1.31680000       4.39950000      -0.57090000
H       -0.80310000       3.41620000      -2.65770000
H       -1.84840000       1.84440000      -1.23610000
