15
Properties=species:S:1:pos:R:3 gdb_27711=T pbc="F F F"
N        0.11870000       1.37980000       0.11970000
C       -0.00780000      -0.00370000       0.03340000
C       -1.13680000      -0.80570000       0.05510000
C       -0.69610000      -2.15580000       0.06270000
N       -1.50200000      -3.28100000       0.12960000
C        0.69600000      -2.14390000       0.03010000
N        1.09540000      -0.79520000      -0.00380000
C        1.59270000      -3.21450000      -0.02540000
N        2.31930000      -4.12280000      -0.06990000
H        0.77180000       1.77350000      -0.54710000
H       -0.77210000       1.85120000       0.04450000
H       -2.15950000      -0.46150000       0.05170000
H       -2.39480000      -3.18810000      -0.33220000
H       -1.03860000      -4.14090000      -0.13060000
H        2.02930000      -0.48210000       0.19900000
