21
Properties=species:S:1:pos:R:3 gdb_87712=T pbc="F F F"
C        0.82510000       1.39110000      -0.07720000
C       -0.01690000       0.11970000      -0.03850000
C        0.50100000      -1.01330000      -0.98180000
C        1.10210000      -1.70670000       0.24500000
C        1.57080000      -3.13410000       0.40430000
C        2.56680000      -2.00760000       0.40890000
O        3.48600000      -1.79570000      -0.62410000
C        0.28090000      -0.81730000       1.18480000
O        0.88410000      -0.29380000       2.34220000
H        1.89840000       1.16630000      -0.04390000
H        0.64440000       1.94580000      -1.00340000
H        0.58680000       2.05060000       0.76360000
H       -1.07430000       0.37130000      -0.15820000
H       -0.30130000      -1.58250000      -1.46020000
H        1.21650000      -0.69650000      -1.74830000
H        1.37030000      -3.65320000       1.33720000
H        1.52810000      -3.77120000      -0.47660000
H        3.02460000      -1.75530000       1.36100000
H        3.14910000      -2.21010000      -1.42450000
H       -0.62790000      -1.31790000       1.53470000
H        1.68960000       0.16220000       2.07560000
