19
Properties=species:S:1:pos:R:3 gdb_91137=T pbc="F F F"
O       -0.02490000       1.43890000       0.39430000
C       -0.02660000       0.07890000       0.07620000
C        0.45670000      -0.97190000       1.13770000
C       -0.85270000      -1.78640000       0.93810000
C       -2.05880000      -1.52410000       1.90550000
C       -1.89010000      -0.46820000       3.00330000
O       -2.09280000       0.61130000       2.04770000
C       -2.48320000      -0.33670000       1.00510000
C       -1.38660000      -0.67600000      -0.03750000
H       -0.63200000       1.53750000       1.14290000
H        0.54370000      -0.02120000      -0.85240000
H        1.36450000      -1.50990000       0.85390000
H        0.61580000      -0.55290000       2.13390000
H       -0.73220000      -2.82290000       0.62450000
H       -2.69820000      -2.38100000       2.11380000
H       -2.69590000      -0.47540000       3.74760000
H       -0.92820000      -0.39350000       3.52010000
H       -3.49860000      -0.14040000       0.65100000
H       -1.76950000      -0.88770000      -1.03770000
