16
Properties=species:S:1:pos:R:3 gdb_125165=T pbc="F F F"
C       -0.01590000       1.52050000       0.11260000
C       -0.00760000       0.03660000      -0.05090000
C        0.01670000      -0.75840000      -1.18250000
C        0.04430000      -0.86250000      -2.63280000
C        0.05520000      -2.16500000      -2.97120000
C        0.03500000      -3.04190000      -1.73350000
N        0.01190000      -2.02650000      -0.69200000
N       -0.01330000      -2.05810000       0.64220000
N       -0.02440000      -0.80360000       1.03060000
H        0.87660000       1.98520000      -0.32080000
H       -0.88890000       1.98000000      -0.36400000
H       -0.04250000       1.76120000       1.17740000
H        0.05400000      -0.02180000      -3.31130000
H        0.07540000      -2.57610000      -3.97070000
H       -0.85050000      -3.68530000      -1.67870000
H        0.92230000      -3.67910000      -1.64540000
