23
Properties=species:S:1:pos:R:3 gdb_83579=T pbc="F F F"
C       -0.04120000       1.55060000       0.01080000
C        0.04150000       0.02240000       0.00670000
C        0.92230000      -0.57050000      -1.11670000
C        2.36470000      -0.27660000      -0.63290000
C        2.26900000      -0.28590000       0.92270000
C        0.77840000      -0.58450000       1.22250000
C        0.53080000      -2.10230000       1.21310000
O        1.07470000      -2.71760000       0.05390000
C        0.67660000      -2.08810000      -1.15580000
H        0.94500000       2.02010000       0.07420000
H       -0.52230000       1.91670000      -0.90290000
H       -0.63080000       1.90620000       0.86300000
H       -0.98050000      -0.37330000      -0.05850000
H        0.70670000      -0.14650000      -2.10350000
H        3.06910000      -1.02660000      -1.00190000
H        2.70610000       0.69440000      -1.00230000
H        2.92350000      -1.04070000       1.36630000
H        2.56170000       0.68040000       1.34270000
H        0.44310000      -0.17210000       2.18040000
H        1.02300000      -2.58850000       2.06200000
H       -0.55160000      -2.30560000       1.28620000
H       -0.38860000      -2.28970000      -1.36340000
H        1.26940000      -2.56450000      -1.94370000
