18
Properties=species:S:1:pos:R:3 gdb_54693=T pbc="F F F"
C        0.00880000       1.38150000      -0.26500000
C       -0.07760000       0.16520000       0.63780000
O        0.81030000      -0.13230000       1.40530000
C       -1.34100000      -0.67040000       0.51160000
C       -1.07900000      -1.90980000      -0.36680000
C       -0.72200000      -2.73620000       0.80660000
C       -1.52930000      -1.69290000       1.66660000
C       -2.77050000      -2.47250000       1.20620000
N       -1.97840000      -3.03770000       0.06310000
H        0.99940000       1.83170000      -0.19320000
H       -0.20790000       1.11130000      -1.30470000
H       -0.74790000       2.11720000       0.03290000
H       -2.20030000      -0.04360000       0.24320000
H       -0.71320000      -1.94780000      -1.38440000
H        0.06770000      -3.44630000       1.00600000
H       -1.34200000      -1.39220000       2.69390000
H       -3.03910000      -3.29470000       1.87400000
H       -3.66990000      -1.91170000       0.92480000
