18
Properties=species:S:1:pos:R:3 gdb_79973=T pbc="F F F"
C       -0.46000000       1.44350000      -0.05840000
C       -0.08450000      -0.01990000      -0.06870000
C        0.59670000      -0.71300000      -1.21000000
C        1.36400000       0.13800000      -2.15950000
C        2.38710000       0.72750000      -1.54080000
C        2.43450000       0.27030000      -0.08900000
C        2.63170000       1.38330000       0.92580000
O        1.92880000       1.61630000       1.87180000
N        1.26390000      -0.59410000       0.11660000
H        0.19970000       2.05830000      -0.67340000
H       -1.47870000       1.54970000      -0.44840000
H       -0.43920000       1.83310000       0.96140000
H       -0.80690000      -0.63480000       0.46680000
H        0.27350000      -1.70310000      -1.52360000
H        1.10170000       0.25280000      -3.20410000
H        3.09010000       1.43070000      -1.97200000
H        3.34100000      -0.35020000       0.05360000
H        3.55790000       1.97500000       0.73400000
