12
Properties=species:S:1:pos:R:3 gdb_130110=T pbc="F F F"
N        0.08230000       1.38590000       0.18810000
C        0.02220000       0.01640000       0.02680000
N       -1.04940000      -0.73880000      -0.04300000
N       -0.68170000      -2.09760000      -0.08780000
C        0.61750000      -2.06940000      -0.05940000
N        1.74920000      -2.83760000      -0.08140000
N        2.85110000      -2.04070000      -0.02310000
N        2.50300000      -0.81340000       0.03870000
N        1.13120000      -0.80250000       0.01980000
H        0.76550000       1.84350000      -0.40280000
H       -0.83530000       1.79780000       0.07620000
H        1.86020000      -3.83460000      -0.14180000
