11
Properties=species:S:1:pos:R:3 gdb_133311=T pbc="F F F"
N       -0.08960000       1.48500000      -0.05280000
C       -0.19920000       0.16500000       0.25170000
C       -1.55390000      -0.37980000       0.12120000
F       -2.59310000       0.39730000      -0.26990000
C       -1.77130000      -1.66610000       0.39610000
O       -1.97700000      -2.77920000       0.63280000
N        1.25390000      -3.27920000      -0.75770000
N        2.34690000      -3.30170000      -0.65000000
O        0.72780000      -0.54780000       0.60790000
H        0.81140000       1.92290000       0.03690000
H       -0.88960000       2.03220000      -0.31870000
