22
Properties=species:S:1:pos:R:3 gdb_109019=T pbc="F F F"
C        0.09550000       1.49780000       0.23940000
C       -0.05030000       0.01730000      -0.15450000
C       -1.46540000      -0.47910000      -0.12180000
C       -2.16160000      -0.99130000      -1.14380000
C       -3.50170000      -1.46530000      -0.70070000
N       -3.41100000      -2.55930000       0.31910000
C       -3.60770000      -1.15630000       0.75250000
C       -4.88630000      -0.76100000       1.44400000
C       -2.29130000      -0.48810000       1.15850000
H        1.14260000       1.81150000       0.18880000
H       -0.48410000       2.13970000      -0.43180000
H       -0.25580000       1.67830000       1.26020000
H        0.36250000      -0.13750000      -1.15770000
H        0.56170000      -0.58960000       0.52800000
H       -1.79050000      -1.10580000      -2.15610000
H       -4.36030000      -1.45110000      -1.36480000
H       -4.31670000      -3.02700000       0.36440000
H       -5.75620000      -1.21610000       0.95810000
H       -4.88440000      -1.08030000       2.49330000
H       -5.02550000       0.32570000       1.43020000
H       -1.78830000      -1.04450000       1.95910000
H       -2.46320000       0.52860000       1.53770000
