21
Properties=species:S:1:pos:R:3 gdb_2855=T pbc="F F F"
C       -0.37420000       1.52800000       0.25900000
C        0.17060000       0.13980000      -0.09840000
C        0.90070000      -0.50980000       1.06070000
C        0.15610000      -1.31020000       2.10570000
C        1.12980000      -1.99970000       1.17630000
C        0.65400000      -3.00460000       0.14560000
C        0.54070000      -4.42170000       0.72070000
H        0.43470000       2.20500000       0.55550000
H       -0.89460000       1.98300000      -0.58970000
H       -1.07790000       1.46930000       1.09600000
H       -0.65790000      -0.49810000      -0.42620000
H        0.84800000       0.22460000      -0.95880000
H        1.71530000       0.10210000       1.44440000
H        0.41360000      -1.18940000       3.15240000
H       -0.90190000      -1.48660000       1.92950000
H        2.08080000      -2.27530000       1.62890000
H       -0.31940000      -2.70040000      -0.25520000
H        1.34560000      -3.01190000      -0.70770000
H        1.50780000      -4.77340000       1.09690000
H       -0.16760000      -4.45050000       1.55540000
H        0.19960000      -5.13380000      -0.03750000
