15
Properties=species:S:1:pos:R:3 gdb_3722=T pbc="F F F"
C        0.06430000       1.44450000      -0.36730000
C       -0.08080000       0.06580000       0.29850000
C       -1.44420000      -0.53340000       0.12140000
N       -2.29540000      -0.59670000       1.14540000
N       -3.40810000      -1.15860000       0.63180000
C       -3.29320000      -1.45760000      -0.68400000
C       -2.02720000      -1.06480000      -1.05710000
H        1.07220000       1.84520000      -0.21990000
H       -0.12080000       1.38620000      -1.44480000
H       -0.65150000       2.15620000       0.05520000
H        0.67440000      -0.61540000      -0.11260000
H        0.11590000       0.14980000       1.37150000
H       -4.19610000      -1.31800000       1.23540000
H       -4.09870000      -1.91730000      -1.23490000
H       -1.58340000      -1.15080000      -2.03600000
