17
Properties=species:S:1:pos:R:3 gdb_49284=T pbc="F F F"
O       -0.05920000      -0.06960000      -0.14960000
C       -0.00140000       1.13570000      -0.06450000
C        1.24610000       1.90340000       0.09280000
C        1.20810000       3.24420000       0.09160000
C        2.42420000       4.11890000       0.16150000
C        3.67860000       3.43600000       0.74990000
C        3.75320000       1.93400000       0.50510000
O        3.13680000       1.11630000       1.50500000
C        2.53550000       1.16950000       0.19880000
H       -0.92000000       1.76390000      -0.11640000
H        0.24440000       3.74150000      -0.01230000
H        2.62690000       4.47040000      -0.86210000
H        2.19330000       5.02720000       0.72890000
H        4.57460000       3.91930000       0.34890000
H        3.69970000       3.58400000       1.83450000
H        4.70840000       1.54780000       0.15080000
H        2.59110000       0.23510000      -0.35440000
