20
Properties=species:S:1:pos:R:3 gdb_101273=T pbc="F F F"
C       -0.22600000       1.52020000      -0.13820000
C       -0.06600000      -0.00090000      -0.21260000
C        1.05150000      -0.47330000      -1.16500000
C        2.45820000      -0.06090000      -0.70570000
C        0.98460000      -1.97780000      -1.30400000
O       -0.09090000      -2.53120000      -2.06270000
C        1.23290000      -2.69980000      -2.57300000
C        1.55840000      -1.98720000      -3.79020000
N        1.84520000      -1.43590000      -4.76500000
H        0.66080000       2.00850000       0.27700000
H       -0.40810000       1.94640000      -1.13090000
H       -1.07470000       1.78810000       0.49820000
H        0.12490000      -0.40270000       0.79230000
H       -1.00930000      -0.44590000      -0.54980000
H        0.86120000      -0.04100000      -2.15520000
H        3.22090000      -0.40080000      -1.41310000
H        2.54310000       1.02530000      -0.62580000
H        2.69320000      -0.48710000       0.27690000
H        1.21050000      -2.54120000      -0.39520000
H        1.61520000      -3.71870000      -2.54180000
