21
Properties=species:S:1:pos:R:3 gdb_107993=T pbc="F F F"
O       -0.07840000       1.44160000       0.01320000
C       -0.01700000       0.02140000      -0.04320000
C       -1.42360000      -0.50410000      -0.01840000
C       -2.54910000      -0.23670000      -1.04730000
C       -3.18450000      -1.15860000       0.01880000
C       -1.87030000      -2.00370000       0.05520000
C       -1.65220000      -2.52780000       1.47600000
C       -2.09570000      -1.27540000       2.28810000
C       -2.46910000      -0.33840000       1.13880000
H        0.82110000       1.78110000      -0.01000000
H        0.48800000      -0.32090000      -0.96190000
H        0.54870000      -0.38730000       0.81100000
H       -2.92350000       0.78850000      -1.10430000
H       -2.41030000      -0.66200000      -2.04640000
H       -4.20480000      -1.54670000       0.04840000
H       -1.64330000      -2.66010000      -0.78870000
H       -2.26810000      -3.40810000       1.68670000
H       -0.61060000      -2.80860000       1.66350000
H       -2.94490000      -1.47930000       2.94820000
H       -1.29150000      -0.86790000       2.90960000
H       -2.82960000       0.66480000       1.37120000
