17
Properties=species:S:1:pos:R:3 gdb_10754=T pbc="F F F"
C        0.05320000       1.59020000       0.20190000
C        0.08740000       0.05820000       0.10130000
O        0.86430000      -0.39950000       1.20450000
C       -1.35830000      -0.43010000       0.26080000
O       -2.14660000      -0.55780000      -0.63630000
C        0.66030000      -0.38780000      -1.24370000
C        2.10240000      -0.23390000      -1.53380000
N        1.51590000      -1.57820000      -1.35120000
H        1.07780000       1.96940000       0.22870000
H       -0.46380000       2.01540000      -0.66170000
H       -0.45760000       1.91050000       1.11510000
H        0.65020000      -1.32280000       1.37920000
H       -1.63380000      -0.63430000       1.32360000
H       -0.05820000      -0.29210000      -2.05260000
H        2.43470000      -0.00750000      -2.54260000
H        2.73840000       0.14990000      -0.74080000
H        1.76750000      -1.89220000      -0.41570000
