20
Properties=species:S:1:pos:R:3 gdb_111157=T pbc="F F F"
C        0.18750000       1.29580000       0.17270000
O       -0.30890000       0.03890000      -0.23340000
C        0.45150000      -0.55130000      -1.24540000
C        1.76060000      -1.34090000      -0.87430000
C        0.82540000      -2.40580000      -0.20950000
C        0.11590000      -2.03290000      -1.55370000
C        1.51490000      -2.09280000      -2.19020000
C        2.05510000      -1.97580000      -3.55060000
N        2.17680000      -3.24280000      -2.76360000
H        1.18800000       1.21670000       0.62300000
H        0.24400000       2.00060000      -0.67140000
H       -0.50540000       1.69310000       0.91800000
H        0.53960000       0.12070000      -2.11140000
H        2.70660000      -0.94530000      -0.50090000
H        1.22020000      -3.42100000      -0.14330000
H        0.31520000      -2.09570000       0.70090000
H       -0.81820000      -2.42710000      -1.95200000
H        1.40650000      -2.04890000      -4.41950000
H        2.95150000      -1.37970000      -3.70590000
H        3.12390000      -3.33150000      -2.40160000
