21
Properties=species:S:1:pos:R:3 gdb_40935=T pbc="F F F"
C        0.16180000       1.38690000      -0.56280000
C        1.42910000       1.61090000       0.30680000
C        1.32540000       0.14720000       0.79150000
C       -0.14840000       0.11520000       0.27290000
C        2.26130000      -0.82720000       0.06910000
C        2.17050000      -2.20000000       0.68280000
C        1.65450000      -2.38010000       1.89560000
C        1.16390000      -1.22790000       2.72490000
O        1.50830000       0.03920000       2.19340000
H       -0.58950000       2.17880000      -0.55790000
H        0.40590000       1.15260000      -1.60220000
H        2.35470000       1.90480000      -0.19530000
H        1.24270000       2.29110000       1.14130000
H       -0.84260000       0.32880000       1.09030000
H       -0.48240000      -0.78120000      -0.25520000
H        2.01360000      -0.86750000      -0.99890000
H        3.29240000      -0.45070000       0.12960000
H        2.53570000      -3.04450000       0.10460000
H        1.56110000      -3.37040000       2.33350000
H        0.06970000      -1.30790000       2.86230000
H        1.60460000      -1.26230000       3.72890000
