19
Properties=species:S:1:pos:R:3 gdb_102136=T pbc="F F F"
C       -0.03700000       1.49470000       0.20690000
N       -0.07430000       0.05210000      -0.01830000
C        0.67790000      -0.44440000      -1.17250000
C       -0.05180000      -0.08680000      -2.49660000
C       -1.40870000      -0.62470000      -2.55360000
N       -2.47580000      -1.06160000      -2.62450000
C        2.07880000       0.00260000      -1.24580000
C        3.21930000       0.39040000      -1.28150000
C        4.60270000       0.84260000      -1.32610000
H        0.97880000       1.91610000       0.25870000
H       -0.58210000       2.01620000      -0.58670000
H       -0.55430000       1.71080000       1.14510000
H        0.25750000      -0.42700000       0.81050000
H        0.66620000      -1.53790000      -1.09150000
H       -0.08830000       0.99960000      -2.62180000
H        0.52460000      -0.48080000      -3.33910000
H        5.18220000       0.26990000      -2.05830000
H        4.66760000       1.90000000      -1.60460000
H        5.09010000       0.72470000      -0.35220000
