16
Properties=species:S:1:pos:R:3 gdb_78827=T pbc="F F F"
O        0.11460000       1.41660000       0.13320000
C       -0.03370000       0.04050000      -0.02870000
C       -1.38600000      -0.65000000      -0.13890000
C       -1.76000000      -0.76770000      -1.57830000
C       -0.68070000      -0.12150000      -2.44330000
C       -0.71930000       1.29450000      -2.77420000
C       -0.76780000       2.46530000      -3.05070000
C        0.28080000      -0.68550000      -1.35920000
N       -0.79470000      -1.75200000      -0.98820000
H       -0.31810000       1.86380000      -0.60550000
H        0.53850000      -0.43340000       0.77390000
H       -2.09290000      -0.87290000       0.65190000
H       -2.75240000      -1.06610000      -1.89550000
H       -0.56180000      -0.71660000      -3.35460000
H       -0.80350000       3.49660000      -3.30400000
H        1.28930000      -0.99330000      -1.62550000
