13
Properties=species:S:1:pos:R:3 gdb_15488=T pbc="F F F"
N       -0.11380000       1.29610000       0.00750000
C       -0.01930000       0.03660000       0.00050000
C       -1.18200000      -0.94840000       0.00210000
N       -0.59620000      -2.29260000      -0.00820000
C        0.66480000      -2.14580000      -0.01470000
N        1.12650000      -0.81180000      -0.01050000
C        2.46050000      -0.44640000      -0.01660000
O        3.37230000      -1.23530000      -0.02620000
H        0.78500000       1.77790000       0.00490000
H       -1.81340000      -0.81200000       0.88620000
H       -1.82350000      -0.80300000      -0.87330000
H        1.40070000      -2.93980000      -0.02300000
H        2.59940000       0.64870000      -0.01200000
