20
Properties=species:S:1:pos:R:3 gdb_16518=T pbc="F F F"
C       -0.03000000       1.45420000       0.04050000
C        0.00040000      -0.05460000      -0.02180000
C        1.02730000      -0.73340000      -0.93780000
C        0.34920000      -2.06380000      -1.36190000
C       -0.74210000      -2.26590000      -0.30260000
C       -0.12350000      -2.29540000       1.13470000
C       -0.40920000      -0.79840000       1.24480000
C       -1.28450000      -0.83990000      -0.00070000
H        0.91230000       1.85600000       0.43170000
H       -0.18630000       1.88890000      -0.95380000
H       -0.83540000       1.81120000       0.69080000
H        1.25150000      -0.10000000      -1.80260000
H        1.97800000      -0.90510000      -0.42010000
H       -0.10640000      -1.96030000      -2.35360000
H        1.05010000      -2.90410000      -1.40750000
H       -1.45890000      -3.05560000      -0.52850000
H       -0.74380000      -2.86950000       1.82830000
H        0.91510000      -2.63660000       1.22550000
H       -0.57390000      -0.25080000       2.16690000
H       -2.27410000      -0.44060000      -0.18330000
