17
Properties=species:S:1:pos:R:3 gdb_22834=T pbc="F F F"
O       -0.26820000       1.26650000       1.00070000
N       -0.04990000      -0.07280000       0.66680000
C       -0.99960000      -0.56260000      -0.07780000
C       -0.76200000      -1.97360000      -0.39650000
C       -1.59870000      -2.85670000      -0.94680000
C       -3.04100000      -2.63980000      -1.32220000
N       -3.32750000      -1.38550000      -2.01210000
C       -3.06680000      -0.15600000      -1.46500000
C       -2.11220000       0.21680000      -0.58370000
H        0.51650000       1.47320000       1.51850000
H        0.22820000      -2.31060000      -0.10410000
H       -1.24200000      -3.87420000      -1.08060000
H       -3.35900000      -3.44520000      -1.99060000
H       -3.66010000      -2.72490000      -0.41100000
H       -4.17790000      -1.41810000      -2.55140000
H       -3.72760000       0.62080000      -1.84270000
H       -2.11070000       1.25870000      -0.29680000
