17
Properties=species:S:1:pos:R:3 gdb_77174=T pbc="F F F"
N        0.27970000       1.20110000       0.39660000
C        0.04380000      -0.12960000      -0.10430000
C       -1.42270000      -0.62460000      -0.20640000
O       -1.20410000      -0.98110000      -1.61580000
C        0.06730000      -0.44160000      -1.61660000
O        0.78780000      -0.29270000      -2.54910000
C       -1.85420000      -1.79700000       0.62840000
C       -2.74660000      -2.84060000       0.07240000
N       -1.32930000      -3.14190000       0.36010000
H        1.27440000       1.38140000       0.47840000
H       -0.09640000       1.90310000      -0.23360000
H        0.66780000      -0.84080000       0.44500000
H       -2.14330000       0.19770000      -0.14240000
H       -1.92970000      -1.55150000       1.68660000
H       -3.46410000      -3.33940000       0.71690000
H       -3.04470000      -2.74470000      -0.96760000
H       -0.81940000      -3.13020000      -0.52160000
