17
Properties=species:S:1:pos:R:3 gdb_63123=T pbc="F F F"
C       -0.01600000       1.57610000       0.03870000
C        0.03710000       0.06780000       0.05360000
O       -1.12110000      -0.57480000      -0.40190000
C        1.29330000      -0.71350000      -0.20640000
O        2.45020000      -0.03390000       0.26490000
C        1.96590000      -0.10360000       1.63310000
C        0.65090000      -0.75390000       1.19360000
C       -0.04150000      -1.76320000       1.91060000
C       -0.60120000      -2.60590000       2.56230000
H        0.95240000       2.01190000       0.29040000
H       -0.28050000       1.92580000      -0.96680000
H       -0.77450000       1.94540000       0.73510000
H       -1.21990000      -0.37090000      -1.33890000
H        1.40310000      -1.48000000      -0.96610000
H        2.58670000      -0.78220000       2.22590000
H        1.91570000       0.87930000       2.11380000
H       -1.10670000      -3.35190000       3.12340000
