16
Properties=species:S:1:pos:R:3 gdb_49544=T pbc="F F F"
O       -0.79330000       0.95410000       0.69610000
C       -0.03450000       1.03970000      -0.23760000
C        1.26670000       1.79020000      -0.23770000
C        1.31360000       3.30770000      -0.66960000
C        0.62760000       3.67140000       0.68120000
C        1.73180000       2.61590000       0.99630000
N        2.64540000       3.34140000       0.02940000
C        3.35440000       4.49170000       0.28480000
O        3.39870000       5.45360000      -0.44850000
H       -0.25580000       0.52720000      -1.20120000
H        2.05160000       1.19950000      -0.71900000
H        1.17570000       3.73200000      -1.66140000
H        0.82020000       4.68360000       1.03800000
H       -0.40620000       3.36370000       0.83130000
H        2.08230000       2.24330000       1.95760000
H        3.96650000       4.39850000       1.20530000
