21
Properties=species:S:1:pos:R:3 gdb_39310=T pbc="F F F"
C       -0.01990000       1.56180000      -0.02950000
C        1.28190000       0.81030000       0.00160000
C        2.16620000       0.79640000       1.23790000
C        1.36500000       0.70700000       2.54480000
C        0.43110000      -0.50770000       2.55820000
C       -0.93190000      -0.29700000       3.24740000
O       -1.59480000      -0.14550000       1.97500000
C       -0.43100000      -0.67150000       1.27830000
C       -0.03530000       0.05110000       0.01540000
H       -0.35810000       2.08540000       0.85660000
H       -0.31570000       2.03520000      -0.95910000
H        1.83200000       0.77660000      -0.93480000
H        2.85390000      -0.05820000       1.17190000
H        2.79380000       1.69580000       1.25330000
H        2.04870000       0.66200000       3.39940000
H        0.78020000       1.62500000       2.67390000
H        0.97800000      -1.40840000       2.84980000
H       -1.30130000      -1.17220000       3.80050000
H       -1.04080000       0.59450000       3.87680000
H       -0.59590000      -1.73290000       1.04340000
H       -0.31770000      -0.45030000      -0.90460000
