21
Properties=species:S:1:pos:R:3 gdb_58817=T pbc="F F F"
C       -0.19110000       1.56650000      -0.11940000
C       -0.01160000       0.04110000      -0.02920000
C       -1.35390000      -0.65860000       0.21910000
C        0.71510000      -0.47600000      -1.24920000
C        0.10990000      -0.86540000      -2.57160000
C        0.90620000      -1.88820000      -1.79490000
C        2.43690000      -1.61380000      -1.91060000
O        2.66230000      -0.48820000      -2.77370000
C        2.26470000      -0.25540000      -1.41530000
H        0.76580000       2.07470000      -0.27710000
H       -0.84780000       1.82920000      -0.95590000
H       -0.63500000       1.96480000       0.79890000
H        0.63140000      -0.16740000       0.83990000
H       -2.07290000      -0.43740000      -0.57690000
H       -1.23720000      -1.74520000       0.27950000
H       -1.79330000      -0.31570000       1.16110000
H       -0.96210000      -1.03230000      -2.55780000
H        0.50140000      -0.46400000      -3.49790000
H        0.48520000      -2.81820000      -1.43590000
H        3.24390000      -2.32730000      -1.79740000
H        2.89670000       0.38110000      -0.80650000
