16
Properties=species:S:1:pos:R:3 gdb_27954=T pbc="F F F"
N       -0.03250000       1.40810000       0.14040000
C        0.00230000       0.01800000       0.04500000
C       -1.17910000      -0.73370000       0.03700000
C       -1.13790000      -2.12730000       0.00320000
C       -2.41060000      -2.88280000      -0.00570000
O       -2.50140000      -4.08800000      -0.03760000
C        0.08630000      -2.80410000      -0.02450000
C        1.25990000      -2.06320000      -0.01800000
C        1.22370000      -0.67120000       0.01560000
H        0.78760000       1.88220000      -0.20810000
H       -0.88150000       1.83970000      -0.19390000
H       -2.14190000      -0.22820000       0.06070000
H       -3.32180000      -2.24190000       0.01990000
H        0.08770000      -3.88680000      -0.05180000
H        2.22130000      -2.56600000      -0.04160000
H        2.15130000      -0.10580000       0.02240000
