14
Properties=species:S:1:pos:R:3 gdb_9251=T pbc="F F F"
O        0.21140000       1.33910000      -0.23930000
C        0.13800000      -0.05110000      -0.05600000
C       -1.33640000      -0.47650000       0.12890000
O       -2.11300000       0.02800000      -0.95960000
C       -1.46210000      -1.91880000       0.29010000
C       -1.53110000      -3.12340000       0.36330000
C       -1.61460000      -4.55700000       0.49110000
O       -2.02490000      -5.29350000      -0.37560000
H       -0.46570000       1.55590000      -0.89380000
H        0.56120000      -0.60930000      -0.90790000
H        0.71790000      -0.30530000       0.83630000
H       -1.72430000       0.03540000       1.01720000
H       -2.01050000      -0.57800000      -1.70320000
H       -1.26460000      -4.94540000       1.46850000
