21
Properties=species:S:1:pos:R:3 gdb_90506=T pbc="F F F"
C        1.06300000       2.08570000       3.11230000
C        0.51900000       0.72770000       2.67960000
C       -0.16520000       0.52390000       1.28300000
C        0.72270000      -0.70620000       1.04030000
C        2.18060000      -0.35140000       1.04010000
C        2.78470000       0.88050000       0.36960000
C        4.03070000       1.31860000       0.99080000
C        5.05570000       1.66310000       1.51610000
C        1.46800000      -0.44050000       2.36340000
H        1.81260000       2.48490000       2.42510000
H        0.25230000       2.81910000       3.19260000
H        1.53820000       2.01080000       4.09680000
H       -0.18710000       0.38470000       3.44350000
H       -1.22630000       0.28010000       1.36750000
H       -0.06590000       1.34150000       0.56090000
H        0.36750000      -1.64850000       0.63980000
H        2.80960000      -1.22760000       0.89300000
H        2.97230000       0.64080000      -0.68580000
H        2.07320000       1.71160000       0.35970000
H        5.96140000       1.97410000       1.97450000
H        1.80120000      -1.16020000       3.10330000
