19
Properties=species:S:1:pos:R:3 gdb_87955=T pbc="F F F"
C       -0.13510000       1.49480000       0.05940000
C        0.00080000      -0.01070000       0.08400000
C        1.31830000      -0.67700000      -0.25640000
C        0.79120000      -0.72600000       1.15370000
C        1.47640000      -0.00860000       2.32810000
O        1.24700000      -0.89610000       3.44300000
C        0.57480000      -1.96240000       2.92490000
N        0.22690000      -2.90090000       3.85940000
N        0.29290000      -1.97600000       1.68100000
H        0.78930000       1.99160000       0.37480000
H       -0.36240000       1.85000000      -0.95180000
H       -0.93880000       1.83890000       0.72040000
H       -0.88470000      -0.55440000      -0.23330000
H        1.30200000      -1.60200000      -0.82160000
H        2.17140000      -0.03350000      -0.45620000
H        2.55760000       0.10920000       2.19810000
H        1.04050000       0.96550000       2.57120000
H        0.84240000      -2.95740000       4.65630000
H       -0.03150000      -3.79140000       3.46380000
