19
Properties=species:S:1:pos:R:3 gdb_54981=T pbc="F F F"
C        0.13880000      -0.00880000       0.74060000
C       -0.27830000       0.96900000      -0.33540000
O       -0.59390000       2.11530000      -0.10530000
C       -0.26710000       0.48630000      -1.76180000
O        0.28850000      -0.81070000      -2.03740000
C       -1.09890000      -0.64410000      -2.22510000
C       -2.21010000      -1.41550000      -1.50210000
C       -3.08810000      -1.21420000      -2.77470000
C       -1.82150000      -0.77310000      -3.56840000
H       -0.45790000      -0.92480000       0.70110000
H        1.17730000      -0.31430000       0.57280000
H        0.03960000       0.46490000       1.71770000
H       -0.02740000       1.26700000      -2.48340000
H       -1.92700000      -2.46090000      -1.34730000
H       -2.58850000      -1.00740000      -0.56250000
H       -3.61240000      -2.09540000      -3.14640000
H       -3.80680000      -0.40120000      -2.65500000
H       -1.89440000       0.12200000      -4.18970000
H       -1.39470000      -1.58500000      -4.16470000
