20
Properties=species:S:1:pos:R:3 gdb_118560=T pbc="F F F"
C       -0.34550000       1.23970000       0.34290000
O       -0.09360000      -0.11570000       0.03850000
C       -1.27540000      -0.90010000      -0.04420000
C       -0.89810000      -2.35570000      -0.34110000
C       -0.01290000      -2.48880000      -1.59050000
O        1.31490000      -2.05710000      -1.34520000
N       -0.20490000      -2.98170000       0.77320000
C       -0.84880000      -3.45010000       1.86800000
O       -2.05330000      -3.41640000       2.03120000
H        0.61950000       1.74760000       0.40310000
H       -0.95730000       1.72210000      -0.43420000
H       -0.86530000       1.34090000       1.30650000
H       -1.83590000      -0.85200000       0.89940000
H       -1.92670000      -0.51890000      -0.84810000
H       -1.83860000      -2.89520000      -0.49810000
H        0.05400000      -3.54120000      -1.88310000
H       -0.47650000      -1.93720000      -2.42260000
H        1.23850000      -1.14730000      -1.02280000
H        0.80330000      -2.98290000       0.72580000
H       -0.14970000      -3.88360000       2.61050000
