18
Properties=species:S:1:pos:R:3 gdb_109287=T pbc="F F F"
O        0.02830000       1.34750000       0.42860000
C        0.02870000       0.00110000      -0.03720000
C       -1.35980000      -0.57740000      -0.09750000
C       -1.86150000      -1.26550000      -1.12770000
C       -3.27010000      -1.79690000      -1.07060000
C       -3.69150000      -2.07290000       0.38280000
C       -3.32200000      -0.95150000       1.34790000
O       -3.97930000      -0.64660000       2.32100000
N       -2.12380000      -0.33690000       1.05350000
H       -0.44430000       1.88160000      -0.21950000
H        0.51150000      -0.09850000      -1.01790000
H        0.63540000      -0.54680000       0.69350000
H       -1.25380000      -1.42840000      -2.01010000
H       -3.95990000      -1.07140000      -1.52850000
H       -3.36630000      -2.71330000      -1.66180000
H       -4.76360000      -2.25230000       0.47920000
H       -3.17690000      -2.97320000       0.74530000
H       -1.80700000       0.38430000       1.68670000
