17
Properties=species:S:1:pos:R:3 gdb_44910=T pbc="F F F"
O        0.02570000       0.00930000       0.04370000
C       -0.00870000       1.20730000       0.00380000
C       -1.25290000       2.11430000      -0.02290000
C       -0.64600000       3.52890000      -0.06120000
C       -0.41700000       4.14520000       1.32880000
C        0.70870000       3.44070000       2.04440000
C        1.46730000       2.53200000       1.42820000
C        1.17710000       2.19720000      -0.01700000
O        0.63290000       3.32500000      -0.69250000
H       -1.81740000       1.89890000      -0.93510000
H       -1.90250000       1.90730000       0.83100000
H       -1.21000000       4.20980000      -0.70130000
H       -0.18620000       5.21410000       1.23040000
H       -1.34150000       4.08780000       1.91900000
H        0.89260000       3.70600000       3.08200000
H        2.25180000       1.98490000       1.93990000
H        2.04140000       1.82540000      -0.56750000
