19
Properties=species:S:1:pos:R:3 gdb_111603=T pbc="F F F"
O        0.65100000       0.05780000       1.42410000
C        0.15120000       0.11000000       0.09300000
C       -1.21920000      -0.54440000      -0.01830000
C       -2.01820000      -0.62970000      -1.35260000
C       -1.07180000      -1.40810000      -2.28930000
C       -1.11870000      -2.68520000      -1.42770000
O       -2.52660000      -3.05110000      -1.56800000
C       -2.75410000      -1.91860000      -0.72700000
C       -1.40930000      -2.07600000       0.00870000
H        0.75390000      -0.86970000       1.66040000
H        0.07810000       1.17570000      -0.15160000
H        0.87080000      -0.33490000      -0.60900000
H       -1.85560000      -0.11420000       0.76480000
H       -2.56220000       0.22670000      -1.74670000
H       -1.49540000      -1.60980000      -3.27500000
H       -0.08700000      -0.95260000      -2.40310000
H       -0.43010000      -3.50830000      -1.61200000
H       -3.74550000      -1.83560000      -0.28540000
H       -1.27200000      -2.71880000       0.87730000
