16
Properties=species:S:1:pos:R:3 gdb_61031=T pbc="F F F"
O       -0.17180000       1.33690000       0.06920000
C        0.05560000      -0.04280000       0.06950000
C        0.76640000      -0.46530000      -1.20260000
O        1.06180000       0.34650000      -2.04740000
C        0.87840000      -0.42940000       1.31490000
C        0.15270000      -0.12580000       2.65200000
N       -0.16050000      -1.45090000       3.21750000
C        0.36870000      -2.29510000       2.44070000
O        1.04380000      -1.87020000       1.33560000
H        0.20060000       1.66130000      -0.76740000
H       -0.89590000      -0.60270000       0.11590000
H        1.00190000      -1.53990000      -1.30650000
H        1.87000000       0.02630000       1.25220000
H        0.78360000       0.43100000       3.35150000
H       -0.76030000       0.45570000       2.49980000
H        0.35040000      -3.37200000       2.56330000
