21
Properties=species:S:1:pos:R:3 gdb_60542=T pbc="F F F"
C        0.13410000       1.38610000       0.43780000
C        0.11850000      -0.10370000       0.07710000
C       -1.28770000      -0.68930000       0.07420000
C       -2.46370000      -0.07810000       0.70470000
O       -2.28420000      -0.02100000      -0.71260000
C        0.80250000      -0.44060000      -1.25680000
O        0.71930000      -1.81080000      -1.58320000
C        0.83740000       0.51760000      -2.41800000
C        2.10820000       0.17400000      -1.66320000
H        1.12880000       1.82070000       0.31550000
H       -0.56720000       1.94580000      -0.18710000
H       -0.15200000       1.53140000       1.48310000
H        0.67220000      -0.65990000       0.84750000
H       -1.30800000      -1.77370000      -0.03600000
H       -3.27720000      -0.71700000       1.04710000
H       -2.38010000       0.87510000       1.22130000
H       -0.12960000      -1.95870000      -2.01370000
H        0.71400000       0.09150000      -3.40760000
H        0.41790000       1.50900000      -2.29710000
H        2.56220000       0.93420000      -1.03850000
H        2.80960000      -0.49660000      -2.14540000
