19
Properties=species:S:1:pos:R:3 gdb_94884=T pbc="F F F"
O       -0.00900000       1.48500000       0.01440000
C        0.02430000       0.06640000      -0.02840000
C        0.69030000      -0.57530000       1.23930000
C        0.02660000      -1.96900000       1.42490000
C       -1.35410000      -1.74040000       0.85560000
C       -2.19920000      -0.56420000       1.20930000
C       -1.35650000      -0.53890000      -0.05580000
C       -1.95560000      -1.50920000      -1.07810000
O       -1.99480000      -2.59750000      -0.10290000
H        0.89920000       1.80440000       0.02830000
H        0.56220000      -0.27320000      -0.92880000
H        1.77910000      -0.63910000       1.15000000
H        0.47750000       0.07460000       2.09480000
H        0.52800000      -2.72490000       0.81150000
H        0.05400000      -2.31160000       2.46410000
H       -3.27570000      -0.65540000       1.11050000
H       -1.86710000       0.07770000       2.01660000
H       -2.95110000      -1.28420000      -1.47750000
H       -1.27310000      -1.75030000      -1.90200000
