23
Properties=species:S:1:pos:R:3 gdb_63632=T pbc="F F F"
C        0.58370000       0.96820000       0.66010000
C       -0.85540000       1.01510000       1.13890000
C       -1.11290000       1.25710000       2.61040000
C       -1.43900000       2.32770000       1.59910000
C       -1.74860000       0.01210000       0.46040000
O       -3.15590000       0.26690000       0.42380000
C       -2.44430000       0.19560000      -0.83050000
C       -2.36090000       1.48750000      -1.61400000
C       -2.78390000      -1.02810000      -1.65630000
H        1.21110000       1.65240000       1.23920000
H        1.00550000      -0.03850000       0.76780000
H        0.66430000       1.25070000      -0.39580000
H       -1.94650000       0.73700000       3.07050000
H       -0.25560000       1.39910000       3.26000000
H       -0.80450000       3.20700000       1.55510000
H       -2.48750000       2.50610000       1.39360000
H       -1.50260000      -1.02160000       0.72420000
H       -2.06900000       2.32730000      -0.98450000
H       -1.63260000       1.39150000      -2.42690000
H       -3.33250000       1.71440000      -2.06710000
H       -3.73920000      -0.88770000      -2.17420000
H       -2.01620000      -1.21130000      -2.41600000
H       -2.86700000      -1.91450000      -1.02270000
