20
Properties=species:S:1:pos:R:3 gdb_10332=T pbc="F F F"
C        0.00930000       1.60790000       0.01250000
C        0.08690000       0.07820000       0.04880000
C        0.68710000      -0.54070000      -1.23330000
C        2.16050000      -0.17750000      -1.31590000
O        2.63670000       0.61640000      -2.08490000
C        0.56350000      -2.07780000      -1.28440000
C       -0.86490000      -2.57320000      -1.50420000
O        1.44580000      -2.60650000      -2.27540000
H        0.99350000       2.05970000      -0.14330000
H       -0.63910000       1.94820000      -0.80170000
H       -0.39700000       1.99830000       0.95030000
H        0.68620000      -0.24520000       0.91110000
H       -0.91580000      -0.33290000       0.20800000
H        0.19620000      -0.10550000      -2.11440000
H        2.79280000      -0.69420000      -0.55600000
H        0.94640000      -2.49030000      -0.34200000
H       -1.53330000      -2.28000000      -0.68950000
H       -1.27490000      -2.16810000      -2.43750000
H       -0.86820000      -3.66410000      -1.57470000
H        1.16880000      -2.26450000      -3.13340000
