13
Properties=species:S:1:pos:R:3 gdb_129041=T pbc="F F F"
N       -0.06850000       1.33470000       0.00790000
C       -0.00790000       0.05360000       0.00100000
C       -1.21010000      -0.76680000       0.00390000
C       -1.12000000      -2.11040000      -0.00350000
N        0.10860000      -2.72790000      -0.01390000
N        1.26940000      -2.08090000      -0.01750000
C        1.22640000      -0.77680000      -0.01060000
C        2.49370000      -0.10640000      -0.01490000
N        3.48190000       0.49620000      -0.01770000
H        0.86520000       1.75100000       0.00450000
H       -2.17110000      -0.26950000       0.01210000
H       -1.97170000      -2.77930000      -0.00190000
H        0.19460000      -3.73110000      -0.01960000
