16
Properties=species:S:1:pos:R:3 gdb_17004=T pbc="F F F"
C        0.07270000       1.60630000      -0.27110000
C        1.29800000       0.78320000       0.00830000
C        1.90900000       0.63800000       1.38570000
C        0.91550000      -0.34760000       2.08550000
O       -0.34500000      -0.24310000       1.38130000
C       -0.05400000       0.14040000       0.08040000
C        0.46600000      -0.76880000      -1.03820000
O        1.71000000      -0.00730000      -1.12210000
H       -0.23470000       2.28410000       0.51710000
H       -0.12030000       1.94250000      -1.28550000
H        2.91770000       0.22350000       1.32950000
H        1.96180000       1.59370000       1.91400000
H        1.28950000      -1.37880000       2.02310000
H        0.72640000      -0.11390000       3.13690000
H        0.65120000      -1.79400000      -0.69870000
H       -0.07660000      -0.78160000      -1.99000000
