10
Properties=species:S:1:pos:R:3 gdb_440=T pbc="F F F"
O        0.00680000      -0.02630000       0.00350000
C       -0.03020000       1.17760000       0.01060000
C       -1.22230000       2.14530000       0.03140000
N       -0.66930000       3.50360000       0.03090000
C        0.59870000       3.35710000       0.01280000
N        1.06140000       2.04610000      -0.00030000
H       -1.86380000       1.98310000      -0.84150000
H       -1.84010000       1.97420000       0.91960000
H        1.30880000       4.17780000       0.00710000
H        2.02190000       1.74420000      -0.01520000
