21
Properties=species:S:1:pos:R:3 gdb_119711=T pbc="F F F"
C       -0.09830000       1.51690000       0.08580000
C       -0.04610000       0.00220000       0.17560000
O       -1.32190000      -0.51100000      -0.20220000
C       -1.39900000      -1.88580000      -0.15380000
C       -0.88420000      -2.82240000      -1.25660000
C       -2.15650000      -3.70760000      -1.05960000
C       -2.65950000      -2.74650000       0.02570000
C       -1.62500000      -2.62340000       1.12350000
O       -0.78030000      -3.67250000       1.50650000
H        0.86630000       1.94840000       0.36930000
H       -0.33430000       1.83360000      -0.93420000
H       -0.86740000       1.91530000       0.75380000
H        0.73290000      -0.39930000      -0.49020000
H        0.19760000      -0.32470000       1.19760000
H       -0.87750000      -2.32510000      -2.22890000
H        0.08210000      -3.29950000      -1.07860000
H       -2.79770000      -3.72510000      -1.94260000
H       -1.97420000      -4.73410000      -0.73110000
H       -3.68870000      -2.44630000       0.18420000
H       -1.93930000      -1.96560000       1.93510000
H       -1.31380000      -4.33490000       1.95860000
