23
Properties=species:S:1:pos:R:3 gdb_103468=T pbc="F F F"
C        0.35340000       1.34880000       0.38020000
C       -0.20580000       0.03040000      -0.17110000
C        0.59220000      -0.52830000      -1.34330000
C        0.43980000       0.25370000      -2.63980000
C        1.96790000      -1.10640000      -1.14620000
O        2.11510000      -1.70270000       0.14570000
C        1.10620000      -2.68900000      -0.19080000
C        0.83020000      -2.03300000      -1.54510000
C        0.50420000      -2.82910000      -2.77770000
H        1.37770000       1.20810000       0.73880000
H        0.36490000       2.14220000      -0.37390000
H       -0.25110000       1.70530000       1.22020000
H       -0.23370000      -0.69480000       0.64540000
H       -1.24650000       0.17120000      -0.49220000
H        0.60700000       1.32130000      -2.46790000
H        1.15790000      -0.06600000      -3.40090000
H       -0.56540000       0.13740000      -3.06150000
H        2.86870000      -0.77350000      -1.65310000
H        1.56360000      -3.68090000      -0.29650000
H        0.29870000      -2.73980000       0.54950000
H       -0.50400000      -3.25710000      -2.70940000
H        0.53680000      -2.22330000      -3.68600000
H        1.20580000      -3.66130000      -2.90700000
