17
Properties=species:S:1:pos:R:3 gdb_14072=T pbc="F F F"
C       -0.04970000       1.47880000      -0.17330000
C        0.05070000      -0.01610000      -0.00530000
N        1.38440000      -0.60800000      -0.09330000
C        0.69790000      -0.62610000       1.19850000
C        1.15870000      -0.01420000       2.53190000
C        0.47870000      -1.20510000       3.28700000
C        0.17790000      -1.84440000       1.91430000
O       -0.23300000      -2.90820000       1.54080000
H        0.81970000       1.97640000       0.26360000
H       -0.09100000       1.74210000      -1.23550000
H       -0.95530000       1.86600000       0.30570000
H       -0.77440000      -0.59440000      -0.42020000
H        1.33950000      -1.54160000      -0.50040000
H        2.24490000       0.00810000       2.63950000
H        0.75710000       0.97500000       2.75940000
H        1.12310000      -1.80510000       3.93440000
H       -0.42600000      -0.94300000       3.84290000
