18
Properties=species:S:1:pos:R:3 gdb_97229=T pbc="F F F"
C        0.08840000       1.43500000       0.08860000
N        0.14640000      -0.01600000       0.04620000
C        0.54000000      -0.60180000      -0.99960000
O        0.97010000       0.07100000      -2.12370000
C        0.78190000      -0.63050000      -3.34830000
O        1.49290000      -1.82830000      -3.38270000
C        1.07370000      -2.71310000      -2.37340000
C        1.95100000      -2.79540000      -1.16740000
C        0.60060000      -2.08650000      -1.08180000
H        0.93930000       1.81680000       0.66660000
H        0.10290000       1.91450000      -0.89630000
H       -0.81840000       1.73510000       0.62360000
H       -0.29470000      -0.80220000      -3.50070000
H        1.18370000       0.01170000      -4.13300000
H        0.57740000      -3.60240000      -2.75290000
H        2.04340000      -3.74080000      -0.64600000
H        2.84200000      -2.17880000      -1.18130000
H       -0.17150000      -2.58700000      -0.51190000
