16
Properties=species:S:1:pos:R:3 gdb_34624=T pbc="F F F"
N        0.00370000      -1.19560000      -0.30360000
C       -0.03340000      -0.05980000      -0.09120000
C       -0.03430000       1.37490000       0.18700000
N       -1.16490000       1.94530000       0.09000000
C       -1.43670000       3.35410000       0.20370000
C       -0.45720000       4.36100000       0.73430000
C        0.78340000       4.20940000       1.18450000
C        1.59610000       2.95920000       1.31280000
N        1.24100000       1.83520000       0.45550000
H       -1.74950000       3.68450000      -0.80080000
H       -2.35800000       3.45130000       0.79890000
H       -0.87380000       5.36750000       0.75270000
H        1.30030000       5.08820000       1.56240000
H        2.64180000       3.19980000       1.08760000
H        1.58230000       2.64740000       2.37200000
H        1.92700000       1.09460000       0.47750000
