14
Properties=species:S:1:pos:R:3 gdb_132279=T pbc="F F F"
C       -0.00430000       1.47600000       0.00270000
C       -0.02850000      -0.02110000       0.01050000
N       -1.16460000      -0.63680000      -0.11800000
C       -1.18650000      -2.02490000      -0.11080000
N       -2.19480000      -2.79000000      -0.22320000
N        0.08300000      -2.64200000       0.04200000
C        1.18400000      -1.89330000       0.16540000
F        2.29330000      -2.58660000       0.30000000
N        1.22200000      -0.61260000       0.16090000
H        0.64030000       1.82950000      -0.80870000
H       -1.01050000       1.87530000      -0.11700000
H        0.43770000       1.84190000       0.93530000
H       -3.03100000      -2.21750000      -0.32500000
H        0.12300000      -3.65160000       0.05370000
