14
Properties=species:S:1:pos:R:3 gdb_131303=T pbc="F F F"
O        0.23910000       1.27740000      -0.12930000
C        0.09890000      -0.05170000      -0.00200000
N        0.22040000      -0.90100000      -1.01660000
N       -0.00490000      -2.09250000      -0.44110000
C        0.09440000      -3.32010000      -1.18890000
C        1.53230000      -3.64200000      -1.59860000
O        1.79880000      -4.43230000      -2.46080000
N       -0.24530000      -2.06140000       0.86170000
C       -0.19200000      -0.76590000       1.17330000
H        0.43000000       1.46730000      -1.05630000
H       -0.27390000      -4.11960000      -0.54010000
H       -0.53130000      -3.27580000      -2.08410000
H        2.31000000      -3.09680000      -1.02100000
H       -0.35940000      -0.41190000       2.17640000
