20
Properties=species:S:1:pos:R:3 gdb_96300=T pbc="F F F"
C        0.59190000       1.15610000       0.66210000
N        0.03650000       0.02940000      -0.07240000
C        0.57440000      -0.16970000      -1.40940000
C        2.00180000      -0.73730000      -1.49660000
C        2.15580000      -2.09520000      -0.81650000
O        2.24220000      -2.02820000       0.61470000
C        1.18070000      -1.70190000       1.39500000
O        1.29100000      -1.79330000       2.58770000
C       -0.10270000      -1.17880000       0.72030000
H        1.64560000       1.03330000       0.96700000
H        0.52050000       2.05810000       0.04620000
H        0.00560000       1.31800000       1.57230000
H       -0.10320000      -0.85210000      -1.94190000
H        0.52980000       0.79030000      -1.93580000
H        2.26780000      -0.85540000      -2.55480000
H        2.73140000      -0.04350000      -1.06360000
H        1.34790000      -2.77750000      -1.11280000
H        3.10030000      -2.55980000      -1.10860000
H       -0.79450000      -0.99710000       1.54750000
H       -0.53450000      -1.96530000       0.08910000
