21
Properties=species:S:1:pos:R:3 gdb_94044=T pbc="F F F"
C        0.14180000       1.64800000      -0.14560000
C       -0.02710000       0.12930000      -0.12340000
C        0.77970000      -0.61390000      -1.21290000
C        1.03050000      -1.98410000      -0.58750000
N        1.32920000      -1.63210000       0.80120000
C        1.45250000      -2.72590000       1.73270000
C        0.19810000      -3.49400000       1.94700000
N       -0.80520000      -4.05490000       2.07210000
C        0.43020000      -0.53820000       1.20280000
H        1.19040000       1.92620000       0.01050000
H       -0.17690000       2.06640000      -1.10610000
H       -0.45280000       2.12840000       0.63860000
H       -1.08790000      -0.10350000      -0.26960000
H        0.24850000      -0.66970000      -2.16620000
H        1.73620000      -0.10810000      -1.38550000
H        0.13510000      -2.62520000      -0.68010000
H        1.87480000      -2.52240000      -1.03230000
H        2.22030000      -3.42460000       1.38140000
H        1.78670000      -2.34810000       2.70570000
H        0.96950000       0.16140000       1.85400000
H       -0.44110000      -0.90700000       1.76620000
