17
Properties=species:S:1:pos:R:3 gdb_47004=T pbc="F F F"
O       -0.00610000       0.00650000       0.37690000
C       -0.02160000       1.14850000       0.00980000
O       -1.19750000       1.70630000      -0.38210000
C       -1.30230000       3.06060000      -0.86560000
C        0.00730000       3.84280000      -0.81370000
C        1.14890000       2.94020000      -1.28230000
C        1.20750000       2.04700000      -0.03230000
C        1.12520000       3.11140000       1.08180000
O        0.33450000       4.17370000       0.53640000
H       -1.67200000       3.00120000      -1.89610000
H       -2.05560000       3.55960000      -0.24940000
H       -0.10490000       4.77590000      -1.37280000
H        0.92470000       2.39450000      -2.20200000
H        2.07660000       3.50240000      -1.41710000
H        2.08820000       1.41230000       0.05530000
H        0.66000000       2.73590000       1.99930000
H        2.12590000       3.48820000       1.32920000
