16
Properties=species:S:1:pos:R:3 gdb_88941=T pbc="F F F"
O       -0.36180000       1.43600000      -0.34110000
C       -0.10640000       0.08460000      -0.08400000
C       -0.51000000      -0.49720000       1.25020000
C       -1.33270000      -0.77480000       0.00290000
N       -2.58490000      -0.12070000      -0.17960000
C       -3.75400000      -0.78410000      -0.29260000
O       -3.91880000      -1.98950000      -0.20680000
C       -4.94160000       0.14320000      -0.55870000
O       -4.84960000       1.33970000      -0.65870000
H        0.20860000       1.96880000       0.22230000
H        0.76960000      -0.32110000      -0.58740000
H        0.07820000      -1.30500000       1.67110000
H       -0.94290000       0.18940000       1.96970000
H       -1.31700000      -1.77610000      -0.41000000
H       -2.58870000       0.88120000      -0.32280000
H       -5.89860000      -0.40810000      -0.64880000
