18
Properties=species:S:1:pos:R:3 gdb_22938=T pbc="F F F"
C       -0.29940000       1.48460000      -0.09230000
C        0.00790000       0.01000000      -0.02330000
C       -0.67070000      -0.88690000       1.02510000
C        0.81220000      -0.67710000       1.05930000
O        1.63110000      -1.68500000       0.52480000
C        1.30150000      -1.88370000      -0.84890000
C        0.41710000      -0.72090000      -1.24710000
N        0.11060000      -0.33850000      -2.42150000
O        0.69170000      -1.18690000      -3.38620000
H        0.52730000       2.03780000      -0.54870000
H       -1.19350000       1.66610000      -0.69680000
H       -0.47720000       1.89270000       0.90710000
H       -1.27100000      -0.36900000       1.76580000
H       -1.05460000      -1.85670000       0.72760000
H        1.29030000      -0.14200000       1.87190000
H        2.21950000      -1.91050000      -1.44500000
H        0.78440000      -2.84240000      -0.99650000
H        0.42130000      -0.77260000      -4.21230000
