17
Properties=species:S:1:pos:R:3 gdb_85794=T pbc="F F F"
C       -0.79890000       1.21120000      -0.10490000
C        0.05140000      -0.04710000      -0.00470000
N        1.32710000      -0.03180000      -0.77830000
C        2.16100000      -0.46550000       0.37540000
C        2.61670000      -1.93230000       0.38030000
C        3.28420000       0.43410000       0.64540000
N        4.16730000       1.14220000       0.87940000
C        0.88970000      -0.23800000       1.26710000
O        0.68830000      -0.22660000       2.43810000
H       -0.19200000       2.10060000       0.08190000
H       -1.23670000       1.29720000      -1.10370000
H       -1.61130000       1.17480000       0.62710000
H       -0.56820000      -0.93930000      -0.18290000
H        1.36330000      -0.66860000      -1.56620000
H        3.33820000      -2.10630000      -0.42370000
H        3.09380000      -2.18140000       1.33150000
H        1.75900000      -2.59580000       0.23540000
