16
Properties=species:S:1:pos:R:3 gdb_62406=T pbc="F F F"
C       -0.03400000       1.58400000      -0.07140000
C       -0.00540000       0.05400000      -0.04890000
C       -1.30200000      -0.53410000       0.24020000
C       -2.37360000      -1.02420000       0.47990000
C        0.71090000      -0.68060000      -1.21780000
N        2.08130000      -0.17260000      -1.24210000
C        1.73090000      -1.30710000      -0.31410000
C        1.09280000      -0.63760000       0.87920000
O        1.23310000      -0.69840000       2.06050000
H        0.94490000       1.96950000      -0.36200000
H       -0.78820000       1.94560000      -0.77640000
H       -0.28660000       1.96330000       0.92230000
H       -3.32080000      -1.45200000       0.69870000
H        0.22870000      -1.11830000      -2.08160000
H        2.56540000      -0.59860000      -2.03240000
H        2.25520000      -2.25200000      -0.37240000
