18
Properties=species:S:1:pos:R:3 gdb_62891=T pbc="F F F"
C       -0.05580000       1.58260000      -0.01250000
C       -0.03470000       0.06560000      -0.00770000
O       -1.30480000      -0.47950000      -0.27390000
C        1.20130000      -0.66470000      -0.65470000
N        2.00270000      -0.14090000       0.53450000
C        0.70720000      -0.67490000       1.14280000
C        0.82150000      -1.88580000       0.19830000
C        0.23920000      -3.20200000       0.03230000
O        1.62950000      -3.01630000       0.41510000
H        0.92600000       1.98760000       0.22920000
H       -0.35020000       1.95320000      -1.00310000
H       -0.78940000       1.94750000       0.71350000
H       -1.72180000       0.05650000      -0.95550000
H        1.57990000      -0.61450000      -1.67650000
H        2.74770000      -0.81180000       0.73680000
H        0.50750000      -0.63920000       2.21420000
H       -0.40050000      -3.61780000       0.80850000
H        0.08810000      -3.61140000      -0.96490000
