20
Properties=species:S:1:pos:R:3 gdb_105811=T pbc="F F F"
C        0.68660000       1.52050000       0.59950000
C        0.15410000       0.13420000       0.21020000
C        0.65770000      -0.31690000      -1.13180000
C        0.03760000       0.21070000      -2.49880000
O        0.95920000      -0.02450000      -3.56850000
C        0.16300000      -1.11430000      -3.09080000
C        0.80120000      -1.68100000      -1.76290000
N        1.93670000      -0.94030000      -1.29360000
C        3.11110000      -0.48880000      -2.04450000
H        1.77910000       1.51140000       0.66220000
H        0.40070000       2.27950000      -0.13690000
H        0.29370000       1.83460000       1.57120000
H        0.45590000      -0.60630000       0.95830000
H       -0.94390000       0.14810000       0.19750000
H       -0.71140000       0.98300000      -2.62880000
H       -0.46220000      -1.64150000      -3.80100000
H        0.58190000      -2.66660000      -1.36360000
H        3.05210000       0.57460000      -2.28760000
H        4.00200000      -0.65880000      -1.42770000
H        3.22520000      -1.04010000      -2.98020000
