20
Properties=species:S:1:pos:R:3 gdb_37085=T pbc="F F F"
C        0.08290000       1.43020000      -0.11130000
C        1.30680000       0.60910000      -0.01340000
N       -0.07230000      -0.03820000      -0.00900000
C        0.23810000      -0.56890000      -1.36750000
C       -0.23700000      -1.91620000      -1.79110000
C       -0.77660000      -0.66480000      -2.46260000
C        1.64850000      -0.00730000      -1.34990000
C        2.50270000       0.54270000      -2.45410000
C        2.91960000      -0.70960000      -1.71230000
H       -0.25150000       1.94940000       0.78200000
H       -0.16430000       1.91930000      -1.05060000
H        1.94100000       0.58950000       0.86750000
H        0.44000000      -2.55290000      -2.35200000
H       -0.89130000      -2.44100000      -1.10350000
H       -1.79350000      -0.36490000      -2.23150000
H       -0.46200000      -0.44970000      -3.47910000
H        2.14520000       0.43380000      -3.47350000
H        3.05350000       1.45960000      -2.27050000
H        3.75360000      -0.64120000      -1.02080000
H        2.85030000      -1.66130000      -2.22990000
