19
Properties=species:S:1:pos:R:3 gdb_74273=T pbc="F F F"
C       -0.01020000       1.52650000       0.02190000
C       -0.01620000      -0.00880000      -0.02060000
C       -1.45800000      -0.53450000       0.01990000
C        0.76920000      -0.55340000      -1.24680000
C        1.93060000      -1.30800000      -0.62720000
O        2.86290000      -1.86570000      -1.15320000
C        1.70580000      -1.20280000       0.85820000
N        2.56390000      -1.85460000       1.68470000
N        0.68570000      -0.50260000       1.19110000
H        1.01400000       1.91220000      -0.01050000
H       -0.56250000       1.94320000      -0.82690000
H       -0.47360000       1.87900000       0.94750000
H       -2.03420000      -0.16110000      -0.83330000
H       -1.47320000      -1.62880000      -0.00560000
H       -1.95040000      -0.21240000       0.94160000
H        0.17970000      -1.23870000      -1.86440000
H        1.14390000       0.23210000      -1.90950000
H        3.42600000      -2.16790000       1.26660000
H        2.57680000      -1.60910000       2.66060000
