21
Properties=species:S:1:pos:R:3 gdb_58877=T pbc="F F F"
C       -0.21370000       1.55930000      -0.06430000
C        0.00710000       0.04850000       0.07740000
O       -1.22230000      -0.65110000       0.17590000
C        0.81570000      -0.51420000      -1.06400000
O        0.06660000      -0.81770000      -2.26120000
C        0.83650000      -1.86760000      -1.63700000
C        2.28000000      -1.70560000      -2.12090000
C        2.27490000      -0.25330000      -1.50710000
C        2.53930000       0.92040000      -2.43940000
H        0.73470000       2.10580000      -0.03330000
H       -0.71020000       1.78740000      -1.01320000
H       -0.84680000       1.91480000       0.75250000
H        0.54450000      -0.14930000       1.01390000
H       -1.54610000      -0.73430000      -0.73130000
H        0.29610000      -2.76070000      -1.34710000
H        2.98510000      -2.37520000      -1.62320000
H        2.41240000      -1.77310000      -3.20390000
H        2.93330000      -0.21510000      -0.63270000
H        1.83550000       0.90550000      -3.27620000
H        2.43580000       1.87940000      -1.92080000
H        3.55490000       0.87160000      -2.84640000
