15
Properties=species:S:1:pos:R:3 gdb_29084=T pbc="F F F"
C        0.04220000       1.52990000      -0.01370000
C       -0.07890000       0.04750000       0.06490000
C       -1.14830000      -0.68750000      -0.24350000
N       -1.11190000      -2.07620000      -0.11850000
C       -0.01880000      -2.78590000       0.31520000
O       -0.01280000      -3.99050000       0.41430000
C        1.18400000      -1.92320000       0.65980000
N        2.24850000      -2.46010000       1.07080000
O        1.07730000      -0.55620000       0.51160000
H        0.84930000       1.82100000      -0.69540000
H       -0.89050000       1.97140000      -0.37070000
H        0.27630000       1.95600000       0.96840000
H       -2.07020000      -0.25000000      -0.59610000
H       -1.92120000      -2.63180000      -0.35230000
H        2.95650000      -1.74680000       1.25690000
