18
Properties=species:S:1:pos:R:3 gdb_82727=T pbc="F F F"
C       -0.07020000       1.40660000      -0.05280000
N       -0.02770000      -0.01220000       0.22350000
C       -1.19600000      -0.86810000       0.07950000
C       -1.29710000      -1.42420000      -1.38680000
C       -0.47020000      -2.61940000      -0.91780000
C       -0.71320000      -2.27650000       0.53240000
C        0.68970000      -2.19200000       0.00590000
C        1.12390000      -0.75120000       0.00980000
O        2.24310000      -0.30380000      -0.12890000
H        0.95620000       1.77700000      -0.02150000
H       -0.49210000       1.62380000      -1.04450000
H       -0.66920000       1.93000000       0.69990000
H       -2.08780000      -0.43000000       0.52540000
H       -2.31810000      -1.73290000      -1.62700000
H       -0.90650000      -0.78510000      -2.18590000
H       -0.42840000      -3.59580000      -1.38430000
H       -1.04540000      -2.86550000       1.37630000
H        1.42460000      -2.95100000       0.23800000
