16
Properties=species:S:1:pos:R:3 gdb_60832=T pbc="F F F"
C        0.43650000       1.57770000       0.11040000
N        0.02980000       0.17760000       0.11830000
C       -0.24380000      -0.44480000       1.31060000
O       -0.21610000       0.08760000       2.39630000
C       -0.05280000      -0.57880000      -1.12810000
C       -1.34960000      -0.22250000      -1.89160000
O       -2.17410000      -1.03880000      -2.19440000
C        1.09290000      -0.37450000      -2.01090000
C        1.98700000      -0.18640000      -2.79170000
H        1.40740000       1.69050000      -0.37980000
H       -0.29420000       2.20930000      -0.40550000
H        0.50480000       1.89430000       1.15080000
H       -0.49710000      -1.51270000       1.16790000
H       -0.14220000      -1.64090000      -0.87450000
H       -1.46610000       0.85620000      -2.12550000
H        2.79260000      -0.03810000      -3.46880000
