21
Properties=species:S:1:pos:R:3 gdb_112186=T pbc="F F F"
C        0.20840000       1.53970000      -0.19730000
O       -0.30830000       0.28030000      -0.56720000
C        0.64560000      -0.56610000      -1.14470000
C        1.69090000      -1.23680000      -0.19380000
C        1.30070000      -2.57790000      -0.83150000
O        1.79810000      -3.66760000      -0.84340000
C        0.07980000      -1.97060000      -1.55350000
C       -1.23030000      -2.32970000      -0.83770000
C        0.00530000      -2.26850000      -3.04950000
H        0.99690000       1.45310000       0.56510000
H        0.62480000       2.07630000      -1.06400000
H       -0.61920000       2.12110000       0.21570000
H        1.13780000      -0.06740000      -1.99360000
H        2.74180000      -0.94820000      -0.26700000
H        1.37580000      -1.18350000       0.85420000
H       -1.17810000      -2.14040000       0.23730000
H       -2.05420000      -1.73150000      -1.23700000
H       -1.45600000      -3.38900000      -0.99180000
H       -0.16720000      -3.33620000      -3.21590000
H       -0.81500000      -1.71130000      -3.51470000
H        0.93430000      -1.99820000      -3.56160000
