21
Properties=species:S:1:pos:R:3 gdb_92185=T pbc="F F F"
O        0.00200000       1.39500000      -0.18240000
C        0.01090000      -0.01830000       0.00770000
C        0.68470000      -0.45440000       1.33670000
C       -0.38200000      -0.59690000       2.42810000
C       -1.31940000       0.64810000       2.40920000
C       -2.16850000      -0.12120000       1.38410000
C       -1.59620000      -1.47370000       1.90980000
C       -1.46230000      -1.98730000       0.46660000
C       -1.44130000      -0.49270000       0.02820000
H        0.91520000       1.69890000      -0.18200000
H        0.52720000      -0.49700000      -0.83990000
H        1.21440000      -1.40330000       1.19480000
H        1.43940000       0.28710000       1.62710000
H        0.05370000      -0.88800000       3.38670000
H       -1.86870000       0.75100000       3.35070000
H       -0.88790000       1.60940000       2.12570000
H       -3.23690000       0.07560000       1.28070000
H       -2.08760000      -2.07790000       2.67420000
H       -0.61180000      -2.61850000       0.18510000
H       -2.38380000      -2.48570000       0.15160000
H       -1.95390000      -0.21820000      -0.89530000
