17
Properties=species:S:1:pos:R:3 gdb_1895=T pbc="F F F"
C       -0.02960000       1.46730000       0.06490000
C       -0.00210000      -0.03620000       0.01840000
C        0.61690000      -0.96000000      -1.07520000
C        0.01810000      -1.94030000      -0.02870000
C        0.63570000      -1.01520000       1.06080000
C       -1.23070000      -1.00930000      -0.02810000
O       -2.18040000      -1.03700000       1.00040000
H        0.97970000       1.88590000       0.14420000
H       -0.49490000       1.87900000      -0.83740000
H       -0.60890000       1.81720000       0.92660000
H        0.14690000      -0.93910000      -2.06340000
H        1.70680000      -0.94840000      -1.14970000
H        0.03820000      -3.03000000      -0.05950000
H        1.72740000      -1.00470000       1.12720000
H        0.20820000      -1.04210000       2.06940000
H       -1.80440000      -0.98930000      -0.95940000
H       -1.72920000      -1.11860000       1.84670000
