15
Properties=species:S:1:pos:R:3 gdb_18651=T pbc="F F F"
O       -0.04230000       0.05110000       0.48940000
C       -0.05240000       1.18180000       0.05530000
C       -1.30180000       1.88410000      -0.33020000
C       -1.39880000       3.21230000      -0.22960000
C       -0.23410000       4.08450000       0.17180000
C        1.10210000       3.38280000      -0.05220000
C        1.79560000       2.57290000       1.00220000
N        1.12640000       1.92680000      -0.11770000
H       -2.15410000       1.25370000      -0.55680000
H       -2.35310000       3.70720000      -0.39450000
H       -0.25530000       5.01290000      -0.40880000
H       -0.36070000       4.39300000       1.21850000
H        1.73610000       3.84650000      -0.80530000
H        2.87980000       2.50440000       1.01420000
H        1.32050000       2.49280000       1.97740000
