22
Properties=species:S:1:pos:R:3 gdb_59492=T pbc="F F F"
C       -0.95820000      -1.80050000      -3.62910000
C       -0.50610000      -1.62900000      -2.17640000
C        0.34170000      -0.36800000      -1.99570000
N       -1.70070000      -1.53040000      -1.33410000
C       -2.40020000      -2.75500000      -0.97080000
C       -1.70580000      -1.94190000       0.06780000
C       -0.50640000      -2.53120000       0.80820000
C        0.31760000      -1.52960000       1.47850000
C        0.97660000      -0.70040000       2.04720000
H       -0.09260000      -1.87130000      -4.29490000
H       -1.55750000      -2.70790000      -3.75340000
H       -1.56790000      -0.94620000      -3.93930000
H        0.10740000      -2.50890000      -1.91110000
H       -0.24040000       0.51710000      -2.27150000
H        0.66620000      -0.25360000      -0.95820000
H        1.23160000      -0.41020000      -2.63160000
H       -3.48340000      -2.74660000      -1.06460000
H       -1.93330000      -3.70570000      -1.23420000
H       -2.30510000      -1.28760000       0.69850000
H       -0.89050000      -3.23370000       1.56010000
H        0.11110000      -3.13020000       0.13060000
H        1.56650000       0.02900000       2.54470000
