17
Properties=species:S:1:pos:R:3 gdb_24587=T pbc="F F F"
C       -0.13020000       1.12290000      -0.25750000
C        1.37750000       1.42020000      -0.17250000
C        1.43600000       0.15610000       0.72550000
O        0.02370000      -0.10410000       0.48660000
C        2.32150000      -0.95890000       0.32720000
C        3.16150000      -1.77180000       1.02680000
C        3.75070000      -2.66740000       0.07790000
C        3.22170000      -2.33030000      -1.12720000
O        2.35530000      -1.29430000      -0.99690000
H       -0.77740000       1.83830000       0.26580000
H       -0.53560000       0.94370000      -1.25970000
H        1.91500000       1.30950000      -1.11420000
H        1.66700000       2.35490000       0.30910000
H        1.61670000       0.36990000       1.78680000
H        3.33470000      -1.73830000       2.09130000
H        4.46530000      -3.45220000       0.26960000
H        3.34860000      -2.71100000      -2.12740000
