16
Properties=species:S:1:pos:R:3 gdb_32022=T pbc="F F F"
C       -0.10980000       1.48240000       0.04000000
N       -0.05320000       0.03570000      -0.08490000
C       -1.14590000      -0.76660000      -0.02870000
C       -1.11730000      -2.14320000       0.02370000
C       -2.35490000      -2.81210000       0.04100000
C       -3.55120000      -2.14720000       0.00820000
C       -3.60010000      -0.72070000      -0.04300000
O       -4.53070000       0.03540000      -0.07640000
O       -2.29310000      -0.09200000      -0.05120000
H        0.86680000       1.88950000      -0.22830000
H       -0.85900000       1.88790000      -0.64190000
H       -0.36250000       1.80800000       1.05710000
H        0.83210000      -0.41640000       0.06920000
H       -0.17440000      -2.67180000       0.04370000
H       -2.35630000      -3.89760000       0.08210000
H       -4.50300000      -2.65980000       0.02240000
