15
Properties=species:S:1:pos:R:3 gdb_129559=T pbc="F F F"
N        0.15840000       1.37170000       0.31910000
C       -0.05080000      -0.05580000       0.01080000
C       -1.50050000      -0.32420000       0.02920000
N       -2.63630000      -0.53410000       0.02070000
C        0.56650000      -0.55530000      -1.27350000
C        1.72280000      -1.29980000      -1.40660000
N        1.92510000      -1.45630000      -2.73550000
N        0.97660000      -0.87020000      -3.49000000
C        0.14970000      -0.32230000      -2.60770000
H        1.15840000       1.55360000       0.29830000
H       -0.24410000       1.93550000      -0.42540000
H        0.38210000      -0.62380000       0.84370000
H        2.39210000      -1.72050000      -0.67230000
H        2.67050000      -1.95500000      -3.19150000
H       -0.72610000       0.20950000      -2.95050000
