25
Properties=species:S:1:pos:R:3 gdb_64118=T pbc="F F F"
C        0.12520000       1.50130000       0.12200000
C       -0.03250000      -0.01830000      -0.03930000
C       -1.51070000      -0.40980000      -0.00550000
C        0.70260000      -0.54370000      -1.29190000
C        2.10610000      -0.85600000      -0.76270000
C        1.83500000      -1.33580000       0.68000000
C        1.59160000      -2.85140000       0.74330000
C        2.93450000      -0.92860000       1.66220000
O        0.62200000      -0.66350000       1.07010000
H        1.17530000       1.80020000       0.04890000
H       -0.43820000       2.04020000      -0.64740000
H       -0.24530000       1.81180000       1.10320000
H       -2.05290000       0.03920000      -0.84460000
H       -1.61990000      -1.49650000      -0.06250000
H       -1.97720000      -0.06890000       0.92380000
H        0.21680000      -1.45390000      -1.65890000
H        0.70130000       0.18210000      -2.10930000
H        2.63450000      -1.60560000      -1.35750000
H        2.72360000       0.04820000      -0.74850000
H        2.51460000      -3.40750000       0.54720000
H        1.22520000      -3.12830000       1.73600000
H        0.84240000      -3.16310000       0.00920000
H        3.06760000       0.15690000       1.65850000
H        2.67410000      -1.23630000       2.67940000
H        3.88820000      -1.39740000       1.39700000
