19
Properties=species:S:1:pos:R:3 gdb_87951=T pbc="F F F"
C        0.01870000       1.48860000      -0.01030000
C       -0.02850000      -0.00370000       0.00420000
C       -1.06220000      -0.81450000       0.22780000
C       -0.62330000      -2.22100000       0.12730000
C       -1.14140000      -3.34270000       1.00830000
C       -1.45700000      -3.31360000      -0.47510000
O       -2.74230000      -2.96980000      -0.90480000
O        0.75750000      -2.20380000      -0.16690000
C        1.19320000      -0.84890000      -0.26520000
H        0.72480000       1.87240000       0.73730000
H        0.35890000       1.86540000      -0.98330000
H       -0.96300000       1.92190000       0.19650000
H       -2.08490000      -0.53050000       0.43210000
H       -0.41830000      -4.07200000       1.35700000
H       -1.94350000      -3.10410000       1.69950000
H       -0.91940000      -4.02400000      -1.10350000
H       -3.33200000      -3.69880000      -0.68310000
H        1.61360000      -0.66260000      -1.26700000
H        2.00030000      -0.66500000       0.46230000
