18
Properties=species:S:1:pos:R:3 gdb_77970=T pbc="F F F"
C       -0.13910000       1.74190000      -0.04970000
C       -0.07750000       0.22420000      -0.08390000
C        1.08780000      -0.59180000      -0.74610000
C        1.99460000      -0.32050000       0.52100000
O        2.52940000       0.93530000       0.81980000
C        0.56700000      -0.65690000       1.04340000
N        0.55490000      -1.76670000       0.02020000
C        1.16210000      -2.99470000       0.12330000
O        1.79440000      -3.53360000      -0.75830000
H       -0.42880000       2.11690000      -1.03770000
H       -0.91500000       2.06280000       0.65430000
H        0.80150000       2.20480000       0.23750000
H       -1.04580000      -0.18990000      -0.37810000
H        1.36760000      -0.67880000      -1.79460000
H        2.72620000      -1.11830000       0.69580000
H        3.40300000       0.99330000       0.42010000
H        0.23290000      -0.81780000       2.06900000
H        0.91710000      -3.49130000       1.08500000
