18
Properties=species:S:1:pos:R:3 gdb_50168=T pbc="F F F"
O       -0.15130000       0.05820000       0.37800000
C       -0.03530000       1.11830000      -0.18050000
C        1.23200000       1.94320000      -0.15630000
C        1.27510000       3.26470000      -1.04700000
C        1.12420000       4.03650000       0.29220000
C        1.56480000       4.91090000       1.51520000
N        0.82180000       3.70400000       2.19450000
C       -0.20330000       3.91230000       1.07900000
C        1.60170000       2.87360000       1.10120000
H       -0.87520000       1.54770000      -0.77490000
H        2.05880000       1.25180000      -0.33630000
H        2.24460000       3.38160000      -1.53640000
H        0.48040000       3.38860000      -1.78940000
H        2.63210000       4.95500000       1.74270000
H        1.06390000       5.86220000       1.71630000
H       -0.80630000       4.81680000       1.19720000
H       -0.85070000       3.04750000       0.91950000
H        2.65490000       2.76820000       1.36680000
