22
Properties=species:S:1:pos:R:3 gdb_10393=T pbc="F F F"
C       -1.75780000      -0.30210000      -0.30870000
C       -0.28270000       0.00750000      -0.02930000
C        0.70870000      -0.61470000      -1.01820000
C        0.49390000      -0.12040000      -2.44630000
O        0.63540000       1.29410000      -2.46140000
C        2.21330000      -0.51700000      -0.60810000
C        2.39260000      -2.02090000      -0.94930000
C        0.84730000      -2.17180000      -0.99440000
H       -2.09980000       0.15990000      -1.23990000
H       -1.93600000      -1.38090000      -0.38420000
H       -2.39300000       0.08110000       0.49600000
H       -0.13160000       1.09270000      -0.02100000
H       -0.02560000      -0.35180000       0.97530000
H        1.23120000      -0.59620000      -3.11280000
H       -0.50440000      -0.42410000      -2.79920000
H        0.52150000       1.59980000      -3.36560000
H        2.81630000       0.20580000      -1.16230000
H        2.33080000      -0.31540000       0.46070000
H        2.85880000      -2.18120000      -1.92500000
H        2.92470000      -2.63340000      -0.21780000
H        0.44050000      -2.60040000      -0.07370000
H        0.42340000      -2.72120000      -1.84110000
