17
Properties=species:S:1:pos:R:3 gdb_66257=T pbc="F F F"
C       -0.09660000       1.56170000      -0.02220000
C        0.04810000       0.03450000      -0.03960000
C        0.87060000      -0.54660000      -1.21840000
C        1.51890000      -1.81780000      -0.63580000
N        1.65890000      -1.47260000       0.76970000
C        0.85550000      -0.46400000       1.20620000
O        0.77200000      -0.01870000       2.32510000
C       -1.27180000      -0.60660000       0.00930000
N       -2.30620000      -1.12320000       0.02510000
H        0.89050000       2.02640000      -0.09540000
H       -0.71270000       1.90710000      -0.85600000
H       -0.55480000       1.87660000       0.91740000
H        0.26850000      -0.74840000      -2.10500000
H        1.64750000       0.17650000      -1.48330000
H        0.87700000      -2.69760000      -0.77450000
H        2.49050000      -2.02960000      -1.09080000
H        2.18850000      -2.01940000       1.43000000
