15
Properties=species:S:1:pos:R:3 gdb_56719=T pbc="F F F"
O        0.39720000       1.57400000      -0.03390000
C        0.12620000       0.18900000       0.04530000
C        0.51560000      -0.53430000      -1.16850000
C        0.86610000      -1.11700000      -2.15890000
C        0.77260000      -0.43890000       1.29320000
C       -0.02640000      -0.50380000       2.55150000
N        0.27910000      -1.72650000       1.80450000
C        2.20630000      -0.23770000       1.35830000
N        3.34090000      -0.01750000       1.37770000
H        1.31450000       1.68320000      -0.31440000
H       -0.96030000       0.11250000       0.17860000
H        1.17330000      -1.63330000      -3.03550000
H        0.47720000      -0.41670000       3.50860000
H       -1.02880000      -0.08520000       2.51470000
H       -0.51420000      -2.03090000       1.24330000
