19
Properties=species:S:1:pos:R:3 gdb_76748=T pbc="F F F"
C        0.16020000       1.57690000      -0.00210000
C        0.07910000       0.07430000       0.06870000
O       -1.27220000      -0.39980000       0.28320000
C       -0.88770000      -1.12180000       1.48210000
C        0.59330000      -0.86420000       1.21540000
C        1.19010000      -1.83010000       0.13510000
O        0.56130000      -3.07150000      -0.03650000
C        0.82080000      -0.78830000      -0.98140000
O       -0.00600000      -1.28370000      -2.01180000
H        1.19740000       1.91230000      -0.10610000
H       -0.40680000       1.93920000      -0.86690000
H       -0.26550000       2.03240000       0.89670000
H       -1.28180000      -0.63330000       2.38210000
H       -1.20430000      -2.16850000       1.45750000
H        1.24380000      -0.55340000       2.03170000
H        2.26460000      -1.99940000       0.25850000
H       -0.10140000      -2.93160000      -0.72990000
H        1.70120000      -0.26770000      -1.37920000
H        0.55720000      -1.62370000      -2.71470000
