12
Properties=species:S:1:pos:R:3 gdb_28664=T pbc="F F F"
O        0.07040000       1.33230000      -0.07630000
C        0.06200000      -0.00430000      -0.04240000
C       -0.00280000      -0.71800000      -1.25720000
N       -0.01340000      -2.03570000      -1.27130000
C        0.04020000      -2.66260000      -0.07950000
C        0.10410000      -1.94710000       1.11630000
N        0.11500000      -0.61360000       1.13350000
C        0.03010000      -4.09630000      -0.06610000
N        0.02390000      -5.25210000      -0.01480000
H        0.11760000       1.64010000       0.84090000
H       -0.04520000      -0.18940000      -2.20440000
H        0.14700000      -2.45950000       2.07240000
