21
Properties=species:S:1:pos:R:3 gdb_96388=T pbc="F F F"
C       -0.02500000       1.56700000      -0.02130000
C        0.04970000       0.03870000      -0.02500000
C        0.68910000      -0.52280000      -1.30510000
C        0.75760000      -2.05650000      -1.27280000
C        1.46310000      -2.54030000       0.00270000
N        0.89260000      -1.99540000       1.24190000
C        0.78100000      -0.53280000       1.22610000
C        2.13030000       0.05210000       1.36060000
N        3.17920000       0.53000000       1.44460000
H        0.97250000       2.01280000      -0.08570000
H       -0.60860000       1.92340000      -0.87590000
H       -0.50240000       1.94380000       0.89000000
H       -0.97280000      -0.36030000       0.04670000
H        0.12200000      -0.17970000      -2.17770000
H        1.70200000      -0.11060000      -1.40950000
H       -0.25960000      -2.47140000      -1.30480000
H        1.28130000      -2.43660000      -2.15750000
H        1.43930000      -3.63170000       0.07720000
H        2.52040000      -2.24810000      -0.02870000
H       -0.03640000      -2.37840000       1.38950000
H        0.22530000      -0.23500000       2.12370000
