16
Properties=species:S:1:pos:R:3 gdb_50755=T pbc="F F F"
O       -0.75980000       0.91450000       0.80820000
C        0.17920000       0.83160000       0.05990000
C        1.27640000       1.89010000      -0.05900000
C        1.41980000       2.66790000       1.25170000
O        2.28310000       3.78430000       1.10400000
C        3.62280000       3.44900000       1.10000000
O        4.11990000       2.90210000      -0.12500000
C        3.61110000       1.75210000      -0.63690000
N        2.45260000       1.25300000      -0.61490000
H        0.32770000      -0.03180000      -0.62280000
H        0.90900000       2.60760000      -0.81400000
H        0.44290000       3.05020000       1.55000000
H        1.79060000       2.00390000       2.04680000
H        4.19420000       4.36800000       1.23470000
H        3.84660000       2.72690000       1.90150000
H        4.39260000       1.23660000      -1.19550000
