23
Properties=species:S:1:pos:R:3 gdb_95511=T pbc="F F F"
C       -0.19840000       1.56950000      -0.01790000
C        0.00700000       0.04790000       0.01070000
C        0.74570000      -0.45830000      -1.24250000
C        2.18370000       0.07480000      -1.32250000
C        2.87780000       0.01770000       0.01040000
C        2.24260000      -0.21490000       1.15870000
C        0.75070000      -0.46060000       1.26970000
C        0.20740000       0.14180000       2.57210000
O        0.48700000      -1.88250000       1.29390000
H        0.74540000       2.11260000       0.09560000
H       -0.64340000       1.87060000      -0.97210000
H       -0.87110000       1.90490000       0.77580000
H       -0.97980000      -0.43030000       0.03610000
H        0.77190000      -1.55080000      -1.19990000
H        0.18970000      -0.17990000      -2.14460000
H        2.75860000      -0.49760000      -2.06150000
H        2.20010000       1.11180000      -1.68980000
H        3.95230000       0.19040000       0.01680000
H        2.80320000      -0.24040000       2.09260000
H        0.40840000       1.21410000       2.64840000
H       -0.87170000      -0.02310000       2.64570000
H        0.68180000      -0.34840000       3.42980000
H        1.17040000      -2.29700000       1.83070000
