17
Properties=species:S:1:pos:R:3 gdb_50170=T pbc="F F F"
O       -0.12310000      -0.11110000      -0.10320000
C       -0.02020000       1.06450000       0.12530000
C        1.22150000       1.90420000      -0.02760000
O        2.42810000       1.20190000      -0.48060000
C        2.27020000       1.90150000      -1.72400000
C        2.81970000       2.89250000      -2.78830000
C        1.20980000       2.98830000      -2.75550000
C        1.19000000       1.45030000      -2.74960000
C        1.36460000       2.98650000      -1.18640000
H       -0.87750000       1.66990000       0.50560000
H        1.40430000       2.39340000       0.93750000
H        3.36540000       3.76070000      -2.41480000
H        3.24820000       2.49620000      -3.71330000
H        0.61660000       3.65800000      -3.37870000
H        1.55570000       0.95220000      -3.64930000
H        0.29990000       0.96360000      -2.35860000
H        1.85930000       3.87200000      -0.78560000
