15
Properties=species:S:1:pos:R:3 gdb_29619=T pbc="F F F"
O        0.10720000       1.34490000       0.23620000
C        0.07520000      -0.00810000       0.03020000
C        0.06410000      -0.73980000      -1.13420000
N        0.02910000      -2.06850000      -0.76810000
C        0.01790000      -2.19500000       0.59610000
C        0.04620000      -0.91940000       1.12150000
N        0.04830000      -0.50440000       2.45920000
C        0.02260000      -1.32460000       3.54280000
O       -0.00650000      -2.53840000       3.50230000
H        0.12340000       1.79680000      -0.61210000
H        0.07780000      -0.43230000      -2.16650000
H        0.01430000      -2.83850000      -1.41090000
H       -0.00840000      -3.14500000       1.09590000
H        0.07190000       0.49240000       2.61200000
H        0.03130000      -0.74830000       4.48810000
