18
Properties=species:S:1:pos:R:3 gdb_84944=T pbc="F F F"
O       -0.09270000       1.41490000      -0.10680000
C        0.02070000      -0.01080000      -0.00950000
C        0.79050000      -0.45130000       1.21780000
C        0.43520000      -0.10130000       2.45330000
C       -0.81200000       0.70120000       2.73960000
C       -2.08590000      -0.06960000       2.38280000
N       -2.27370000      -0.37830000       0.96530000
C       -1.41670000      -0.56100000      -0.08690000
O       -1.79720000      -1.10910000      -1.10590000
H        0.79550000       1.77440000      -0.00640000
H        0.49760000      -0.40990000      -0.91100000
H        1.67090000      -1.06540000       1.05120000
H        1.03860000      -0.42390000       3.29800000
H       -0.87060000       0.94720000       3.80380000
H       -0.79440000       1.63840000       2.17750000
H       -2.10850000      -1.00380000       2.96520000
H       -2.95160000       0.52410000       2.70030000
H       -3.17320000      -0.78650000       0.74650000
