19
Properties=species:S:1:pos:R:3 gdb_59272=T pbc="F F F"
C        0.13240000       1.27350000      -0.37760000
C        0.08370000      -0.12330000       0.24220000
O        0.56360000      -0.12310000       1.58480000
C       -1.30790000      -0.72570000       0.17110000
C       -1.92240000      -1.23200000      -1.11890000
O       -1.02610000      -1.45820000      -2.18840000
C       -0.50650000      -2.75870000      -1.96370000
O       -0.45500000      -2.94370000      -0.56050000
C       -1.54490000      -2.20810000      -0.04730000
H        1.13470000       1.69750000      -0.27040000
H       -0.12260000       1.22990000      -1.44030000
H       -0.58020000       1.94810000       0.11460000
H        0.77390000      -0.77960000      -0.29220000
H        0.04290000       0.51760000       2.08160000
H       -2.02840000      -0.25550000       0.84070000
H       -2.93750000      -0.98950000      -1.41510000
H       -1.16020000      -3.51670000      -2.42800000
H        0.50590000      -2.81740000      -2.37200000
H       -2.24450000      -2.78030000       0.55190000
