18
Properties=species:S:1:pos:R:3 gdb_90605=T pbc="F F F"
C        0.01960000       1.59230000       0.20600000
N        0.05690000       0.14910000       0.17200000
C       -1.21170000      -0.60160000       0.23860000
C       -0.54120000      -1.62260000       1.19060000
C        0.63440000      -0.59270000       1.31220000
C        1.67270000      -1.62030000       0.80760000
O        2.44040000      -2.14030000       1.87840000
C        0.46760000      -2.57140000       0.51800000
O        0.40140000      -3.68130000       0.07520000
H        1.03960000       1.98850000       0.24330000
H       -0.45230000       1.97140000      -0.70670000
H       -0.53840000       1.99670000       1.07170000
H       -2.01460000      -0.05210000       0.75540000
H       -1.59220000      -0.96490000      -0.72200000
H       -1.12510000      -2.03000000       2.01400000
H        0.86320000      -0.03400000       2.22260000
H        2.28300000      -1.29550000      -0.04410000
H        2.75200000      -3.01430000       1.61620000
