17
Properties=species:S:1:pos:R:3 gdb_123882=T pbc="F F F"
C       -0.14340000       1.55560000       0.04410000
C        1.39240000       1.53620000      -0.18040000
N        1.40870000       0.14880000       0.31270000
C       -0.05740000       0.02030000       0.26230000
C        2.29960000      -0.80230000      -0.10300000
N        3.45110000      -0.46500000      -0.65540000
O        4.11010000      -1.67990000      -0.90070000
C        3.32560000      -2.68530000      -0.50110000
C        2.16230000      -2.22340000       0.01580000
H       -0.44620000       2.10320000       0.93760000
H       -0.74830000       1.88380000      -0.80080000
H        1.69670000       1.61540000      -1.23140000
H        1.99610000       2.22930000       0.41210000
H       -0.50870000      -0.37800000       1.17710000
H       -0.41420000      -0.56730000      -0.59460000
H        3.72440000      -3.67860000      -0.64340000
H        1.34080000      -2.78590000       0.42580000
