18
Properties=species:S:1:pos:R:3 gdb_73804=T pbc="F F F"
C        0.07760000       1.54970000      -0.04300000
C        0.01970000       0.05670000      -0.05070000
C       -1.03670000      -0.75210000       0.05250000
C       -2.48930000      -0.44490000       0.21120000
C       -0.54530000      -2.19050000       0.00370000
O        0.84730000      -2.12540000      -0.24290000
C        1.27580000      -0.76440000      -0.17430000
C       -0.82500000      -2.90430000       1.27390000
N       -1.06840000      -3.44670000       2.26490000
H        0.70790000       1.91100000       0.77900000
H        0.52200000       1.93140000      -0.97050000
H       -0.91080000       2.00030000       0.06820000
H       -3.07420000      -0.85480000      -0.62190000
H       -2.88690000      -0.89470000       1.12880000
H       -2.67400000       0.63050000       0.25380000
H       -1.02740000      -2.76670000      -0.80100000
H        1.84860000      -0.52940000      -1.08280000
H        1.94960000      -0.61930000       0.68510000
