20
Properties=species:S:1:pos:R:3 gdb_95455=T pbc="F F F"
O       -0.05620000       1.49080000       0.08600000
C       -0.03800000       0.06140000       0.07230000
C        0.62150000      -0.56950000       1.31640000
C       -0.18810000      -1.85910000       1.58800000
C       -1.49800000      -1.57430000       0.89700000
C       -1.44730000      -0.50570000       0.09430000
C       -2.55230000      -0.00280000      -0.75020000
C       -2.97620000       1.43030000      -0.73240000
N       -2.31550000       0.87360000      -1.91920000
H        0.85080000       1.80120000       0.00000000
H        0.46580000      -0.27530000      -0.85060000
H        1.69370000      -0.74600000       1.19230000
H        0.48590000       0.13690000       2.14200000
H        0.30270000      -2.74050000       1.15120000
H       -0.30190000      -2.07230000       2.65690000
H       -2.37160000      -2.20640000       1.01890000
H       -3.33670000      -0.73580000      -0.92630000
H       -4.03010000       1.66450000      -0.85680000
H       -2.41090000       2.11100000      -0.10580000
H       -1.34670000       1.18530000      -1.90120000
