16
Properties=species:S:1:pos:R:3 gdb_131538=T pbc="F F F"
O       -0.06960000       1.40800000      -0.03440000
C        0.00100000      -0.00530000       0.01860000
C        0.57740000      -0.50400000       1.37750000
N       -0.63400000      -0.70020000       2.15150000
N       -0.83970000      -0.90010000       3.45990000
N       -2.13400000      -1.04790000       3.60320000
C       -2.74670000      -0.94690000       2.38590000
C       -1.77920000      -0.71920000       1.43530000
C       -1.46920000      -0.51690000      -0.01460000
H        0.82560000       1.76210000      -0.02460000
H        0.58800000      -0.40110000      -0.82000000
H        1.12680000      -1.44630000       1.27500000
H        1.23000000       0.23760000       1.84440000
H       -3.81580000      -1.03610000       2.28680000
H       -2.09970000       0.22640000      -0.50640000
H       -1.54780000      -1.45310000      -0.57830000
