21
Properties=species:S:1:pos:R:3 gdb_102296=T pbc="F F F"
C        0.60850000       1.40400000       0.40680000
C       -0.01470000       0.06660000       0.00410000
C        0.49090000      -0.42210000      -1.34890000
O        0.28450000      -0.97750000       0.93660000
C       -0.44840000      -0.99960000       2.15630000
C       -0.55680000      -2.49060000       2.52870000
O        0.70890000      -3.09940000       2.60320000
C        0.19080000      -0.21840000       3.22180000
C        0.69100000       0.40170000       4.12180000
H        1.69650000       1.30800000       0.47840000
H        0.37530000       2.16640000      -0.34390000
H        0.23450000       1.74830000       1.37310000
H       -1.11030000       0.18050000      -0.04210000
H        1.57600000      -0.56360000      -1.31980000
H        0.02630000      -1.37580000      -1.61270000
H        0.26060000       0.30790000      -2.13030000
H       -1.46570000      -0.61100000       1.98820000
H       -1.03210000      -2.59670000       3.50820000
H       -1.19930000      -2.97120000       1.77370000
H        1.16900000      -2.85290000       1.79150000
H        1.14320000       0.94990000       4.91110000
