18
Properties=species:S:1:pos:R:3 gdb_76071=T pbc="F F F"
C       -0.14810000       1.58250000      -0.02420000
C        0.02090000       0.08470000       0.08370000
C        1.34360000      -0.59520000      -0.17770000
C        2.52450000       0.15680000      -0.50510000
N        3.48170000       0.71150000      -0.84170000
C        0.74880000      -0.59170000       1.23910000
C        1.38980000       0.19580000       2.34370000
C        1.26580000      -0.41150000       3.72790000
O        1.96360000       1.24460000       2.15010000
H        0.72650000       2.11510000       0.34820000
H       -0.31160000       1.86180000      -1.06980000
H       -1.02100000       1.90750000       0.55090000
H       -0.83070000      -0.48850000      -0.27290000
H        1.31090000      -1.55790000      -0.67820000
H        0.34660000      -1.55160000       1.54610000
H        1.74380000      -1.39790000       3.75120000
H        1.73720000       0.24270000       4.46150000
H        0.21130000      -0.56280000       3.98630000
