19
Properties=species:S:1:pos:R:3 gdb_73693=T pbc="F F F"
O        0.03610000       1.45450000      -0.21230000
C        0.06050000       0.04930000      -0.00900000
C        0.70010000      -0.71300000      -1.19300000
C       -0.26910000      -1.87520000      -1.44370000
O       -1.54930000      -1.36510000      -1.08380000
C       -1.41100000      -0.47650000       0.00000000
O       -1.63370000      -1.08750000       1.25120000
C       -0.38640000      -1.43880000       1.84310000
C        0.58460000      -0.34230000       1.39050000
H        0.94570000       1.76990000      -0.22000000
H        0.70590000      -0.04180000      -2.05610000
H        1.72370000      -1.04420000      -0.99850000
H       -0.31410000      -2.18550000      -2.49100000
H       -0.01240000      -2.75890000      -0.84090000
H       -2.16120000       0.30640000      -0.12210000
H       -0.52720000      -1.47410000       2.92670000
H       -0.05910000      -2.43610000       1.51320000
H        1.62880000      -0.66630000       1.39300000
H        0.48600000       0.53220000       2.03970000
