21
Properties=species:S:1:pos:R:3 gdb_95008=T pbc="F F F"
C       -0.04300000       1.49250000      -0.03780000
N       -0.01120000       0.04210000       0.01900000
C       -1.33930000      -0.54270000      -0.12310000
C       -1.27950000      -2.03900000       0.19880000
N       -0.43770000      -2.36180000       1.36220000
C       -0.15420000      -1.20270000       2.32520000
C        1.13780000      -1.95390000       2.70360000
C        1.02780000      -2.00020000       1.16470000
C        0.66770000      -0.48990000       1.17430000
H        0.97320000       1.89290000       0.02940000
H       -0.46740000       1.80970000      -0.99640000
H       -0.64980000       1.95300000       0.76520000
H       -2.05380000      -0.05680000       0.56990000
H       -1.71630000      -0.37100000      -1.13820000
H       -2.29270000      -2.41200000       0.38520000
H       -0.87940000      -2.60260000      -0.65290000
H       -0.92070000      -0.80920000       2.99530000
H        1.95180000      -1.36520000       3.13050000
H        0.98450000      -2.90970000       3.20370000
H        1.64780000      -2.54190000       0.44670000
H        1.46150000       0.19490000       1.49000000
