12
Properties=species:S:1:pos:R:3 gdb_21587=T pbc="F F F"
N        0.08010000       1.41140000       0.11300000
C       -0.02960000       0.03330000       0.01240000
C       -1.10040000      -0.82030000       0.02400000
N       -0.63290000      -2.11030000      -0.02450000
N        0.64750000      -2.12580000      -0.07460000
N        1.06560000      -0.80110000      -0.03820000
C        2.42250000      -0.44340000       0.03620000
O        3.33400000      -1.21230000      -0.04490000
H        0.66170000       1.84630000      -0.59240000
H       -0.82210000       1.86630000       0.14500000
H       -2.15400000      -0.59660000       0.05690000
H        2.53570000       0.64410000       0.19300000
