21
Properties=species:S:1:pos:R:3 gdb_107208=T pbc="F F F"
C        0.30710000       1.32150000      -0.21760000
O       -0.15620000       0.03850000       0.15760000
C        0.53730000      -0.51820000       1.23130000
C        1.89520000      -1.11680000       0.96800000
C        0.70920000      -2.01230000       1.29980000
C        0.46440000      -2.46420000       2.72510000
C        1.39990000      -2.02290000       3.82440000
C        0.14370000      -1.23350000       3.55710000
C        0.18920000      -0.00780000       2.64110000
H        1.37550000       1.30710000      -0.47660000
H       -0.26890000       1.62600000      -1.09490000
H        0.15380000       2.06370000       0.57910000
H        2.20900000      -1.12840000      -0.07080000
H        2.70630000      -0.98740000       1.67560000
H        0.32850000      -2.63500000       0.49890000
H       -0.08000000      -3.39170000       2.85950000
H        1.41510000      -2.62450000       4.72740000
H        2.36710000      -1.60220000       3.57250000
H       -0.63250000      -1.25880000       4.31400000
H        0.87900000       0.76370000       3.00220000
H       -0.80630000       0.44490000       2.58460000
