20
Properties=species:S:1:pos:R:3 gdb_65318=T pbc="F F F"
C        0.07070000       1.57660000      -0.11880000
C        0.02450000       0.06190000      -0.07530000
C        1.10880000      -0.68520000      -0.80060000
C        1.11520000      -0.67090000       0.72260000
C        2.12980000       0.05530000       1.42930000
N        2.94300000       0.64820000       2.00170000
C       -1.32810000      -0.59970000      -0.01800000
C       -2.45030000      -0.09370000       0.85590000
C       -2.56180000       0.00380000      -0.64530000
H        1.09980000       1.93930000      -0.06630000
H       -0.36830000       1.94950000      -1.04920000
H       -0.47290000       2.02270000       0.71970000
H        0.86920000      -1.63010000      -1.27580000
H        1.88110000      -0.11090000      -1.29960000
H        0.80740000      -1.58470000       1.22010000
H       -1.26450000      -1.68290000      -0.09210000
H       -3.05680000      -0.82670000       1.37580000
H       -2.29900000       0.82550000       1.41030000
H       -2.48580000       0.98920000      -1.09020000
H       -3.24560000      -0.66090000      -1.16120000
