11
Properties=species:S:1:pos:R:3 gdb_65=T pbc="F F F"
C       -0.01060000       1.54130000       0.00720000
C       -0.00200000       0.00760000       0.03860000
N        0.76270000      -0.47100000       1.19250000
C       -1.38540000      -0.52100000      -0.00190000
N       -2.45680000      -0.95640000       0.00690000
H        1.02040000       1.90110000       0.00390000
H       -0.52870000       1.91190000      -0.88030000
H       -0.51850000       1.94150000       0.89010000
H        0.50420000      -0.35810000      -0.86280000
H        0.30070000      -0.18360000       2.05160000
H        0.78150000      -1.48670000       1.20430000
