25
Properties=species:S:1:pos:R:3 gdb_65652=T pbc="F F F"
C        0.20260000       1.58250000       0.27070000
C        0.01700000       0.08940000       0.06750000
C       -1.41350000      -0.42110000       0.19390000
C       -2.40470000       0.15190000      -0.81470000
C       -2.31470000      -0.25150000      -2.31590000
C       -3.86560000      -0.28390000      -2.35970000
C       -3.86470000      -0.38580000      -0.81060000
C        0.93890000      -0.60220000      -0.91160000
C        1.11760000      -0.81330000       0.57390000
H        1.26160000       1.85600000       0.22860000
H       -0.31660000       2.16770000      -0.49620000
H       -0.18330000       1.89850000       1.24760000
H       -1.41130000      -1.51570000       0.10120000
H       -1.77910000      -0.20330000       1.20890000
H       -2.42970000       1.24490000      -0.73620000
H       -1.79280000       0.42140000      -3.00070000
H       -1.89160000      -1.25510000      -2.43000000
H       -4.28060000       0.66910000      -2.70100000
H       -4.34320000      -1.08930000      -2.92290000
H       -3.89880000      -1.42910000      -0.47770000
H       -4.61800000       0.17880000      -0.25490000
H        0.54680000      -1.42640000      -1.49750000
H        1.67580000      -0.00170000      -1.43500000
H        1.97490000      -0.35480000       1.05580000
H        0.84100000      -1.77750000       0.98820000
