14
Properties=species:S:1:pos:R:3 gdb_608=T pbc="F F F"
C       -0.05730000       1.56170000      -0.11890000
C        0.02650000       0.05460000       0.00230000
C        1.31150000      -0.68020000      -0.17120000
C        0.65590000      -0.65240000       1.20780000
C        1.31350000       0.10670000       2.29210000
O        1.26750000      -0.19450000       3.46040000
H        0.87400000       2.05250000       0.17550000
H       -0.26100000       1.84370000      -1.15740000
H       -0.86190000       1.96880000       0.50210000
H       -0.85830000      -0.46270000      -0.35930000
H        1.32790000      -1.63110000      -0.69110000
H        2.21540000      -0.08940000      -0.28980000
H        0.16620000      -1.55710000       1.55130000
H        1.89030000       0.99950000       1.95730000
