20
Properties=species:S:1:pos:R:3 gdb_30723=T pbc="F F F"
C        0.05480000       1.58660000       0.25250000
C       -0.01840000       0.08100000      -0.06260000
C       -1.40550000      -0.44790000      -0.17150000
C       -2.18630000      -0.85020000      -1.21730000
N       -1.89480000      -0.83140000      -2.59420000
C       -3.46450000      -1.23190000      -0.66670000
C       -4.64630000      -1.73410000      -1.43300000
C       -3.35290000      -1.02390000       0.67100000
O       -2.12650000      -0.54550000       0.99590000
H        1.09410000       1.91810000       0.34430000
H       -0.42640000       2.17450000      -0.53510000
H       -0.45740000       1.80510000       1.19380000
H        0.50580000      -0.12430000      -1.00430000
H        0.52290000      -0.47580000       0.71360000
H       -0.90800000      -0.70170000      -2.78040000
H       -2.20280000      -1.67590000      -3.06240000
H       -4.43850000      -2.69170000      -1.92840000
H       -5.50660000      -1.88860000      -0.77600000
H       -4.94250000      -1.02730000      -2.21680000
H       -4.03840000      -1.16620000       1.49110000
