17
Properties=species:S:1:pos:R:3 gdb_13925=T pbc="F F F"
O        0.09500000      -0.00310000      -0.04680000
C        0.04250000       1.19910000      -0.02810000
N       -0.99770000       2.09610000      -0.03150000
C       -0.15900000       3.29910000       0.00260000
C        1.07240000       2.35320000       0.00860000
C        2.15800000       2.30050000       1.11230000
C        3.15750000       1.79660000       0.03570000
C        2.19570000       2.33580000      -1.05800000
H       -1.99800000       1.96510000      -0.05070000
H       -0.24980000       3.93580000      -0.88430000
H       -0.28090000       3.90670000       0.90600000
H        2.41000000       3.30390000       1.46950000
H        1.96220000       1.65480000       1.97140000
H        4.17230000       2.19850000       0.05990000
H        3.20340000       0.70570000       0.01880000
H        2.03030000       1.71850000      -1.94390000
H        2.45940000       3.35010000      -1.37340000
