19
Properties=species:S:1:pos:R:3 gdb_89493=T pbc="F F F"
C       -0.10540000       1.62620000      -0.11690000
C        0.04030000       0.11760000       0.01030000
C        0.82680000      -0.55110000      -1.12860000
C        2.22050000      -0.83560000      -0.46220000
O        3.17230000       0.20990000      -0.65080000
C        1.83880000      -1.08350000       0.99950000
C        0.68040000      -0.47580000       1.23330000
C       -0.69260000      -0.65910000       1.82520000
O       -1.23860000      -0.46770000       0.48560000
H        0.85020000       2.08260000      -0.39660000
H       -0.83150000       1.86010000      -0.90240000
H       -0.45350000       2.07970000       0.81550000
H        0.34910000      -1.50380000      -1.37560000
H        0.92810000       0.04550000      -2.03880000
H        2.68690000      -1.72030000      -0.90680000
H        2.99650000       0.88290000       0.01440000
H        2.39940000      -1.73480000       1.65900000
H       -0.92320000      -1.64530000       2.24040000
H       -1.04020000       0.12040000       2.51530000
