17
Properties=species:S:1:pos:R:3 gdb_125576=T pbc="F F F"
C       -0.25080000       1.47560000       0.00480000
C       -0.00730000      -0.00220000      -0.02860000
N        0.10200000      -0.58840000      -1.18040000
N        0.32100000      -1.92300000      -1.14270000
C        0.43810000      -2.71230000      -0.01130000
N        0.64580000      -3.97850000       0.03230000
C        0.29330000      -1.91580000       1.22480000
C        0.39770000      -2.63920000       2.52760000
N        0.08380000      -0.63990000       1.20090000
H        0.55100000       1.98030000       0.55400000
H       -0.30460000       1.87640000      -1.00800000
H       -1.18460000       1.69480000       0.53320000
H        0.40160000      -2.35100000      -2.05340000
H        0.72300000      -4.38460000      -0.90240000
H        1.36440000      -3.14860000       2.59710000
H        0.27420000      -1.93900000       3.35370000
H       -0.35760000      -3.43030000       2.57860000
