18
Properties=species:S:1:pos:R:3 gdb_33934=T pbc="F F F"
C        0.05650000      -1.20530000       0.00640000
C        0.04810000      -0.00150000       0.01960000
C        0.02120000       1.42770000       0.05600000
C        0.29960000       2.24720000      -1.19730000
C        1.29120000       2.28550000      -0.07240000
C        1.23610000       3.40310000       0.97350000
C       -0.11560000       3.27490000       1.66970000
N       -1.28030000       3.46840000       0.78080000
C       -0.84010000       2.10050000       1.11970000
H        0.06820000      -2.26640000      -0.01350000
H        0.58110000       1.68740000      -2.08190000
H       -0.34400000       3.10260000      -1.36050000
H        2.24230000       1.79000000      -0.23130000
H        2.03360000       3.25300000       1.70920000
H        1.37590000       4.39680000       0.53450000
H       -0.20420000       3.57250000       2.71010000
H       -2.09810000       3.70920000       1.33510000
H       -1.48110000       1.46830000       1.72260000
