14
Properties=species:S:1:pos:R:3 gdb_4870=T pbc="F F F"
N        0.19120000       1.26180000      -0.03310000
C       -0.01280000      -0.09360000       0.00390000
N       -1.12810000      -0.72650000       0.20250000
C       -0.74110000      -2.06480000       0.21660000
C        0.59090000      -2.17600000       0.02560000
C        1.57620000      -3.27950000      -0.08190000
O        2.10160000      -3.46130000      -1.39470000
O        1.08190000      -0.87670000      -0.11350000
H        0.97130000       1.56180000      -0.59870000
H       -0.65700000       1.78150000      -0.20310000
H       -1.45940000      -2.85650000       0.36310000
H        2.39170000      -3.12940000       0.64300000
H        1.07350000      -4.21480000       0.17850000
H        2.53100000      -2.63740000      -1.64690000
