16
Properties=species:S:1:pos:R:3 gdb_127844=T pbc="F F F"
C        0.01390000       1.39420000       0.39270000
N       -0.02520000      -0.04990000       0.26880000
C       -1.12660000      -0.63600000      -0.03120000
C       -2.38630000       0.01800000      -0.41900000
C       -3.62830000      -0.50740000      -0.39180000
N       -4.11490000      -1.68920000       0.17650000
N       -3.45960000      -2.76140000       0.29550000
C       -2.13610000      -2.95440000      -0.10820000
C       -1.09930000      -2.09170000      -0.17820000
H        0.19840000       1.85840000      -0.58740000
H       -0.89910000       1.84020000       0.81080000
H        0.85360000       1.66970000       1.03670000
H       -2.30540000       1.03760000      -0.78650000
H       -4.45360000       0.11500000      -0.72850000
H       -1.92410000      -4.01470000      -0.21410000
H       -0.10450000      -2.50820000      -0.31580000
