14
Properties=species:S:1:pos:R:3 gdb_50193=T pbc="F F F"
N       -0.16260000       1.14060000      -0.64050000
C       -0.08000000       0.01060000      -0.11700000
O        1.03150000      -0.71620000       0.32330000
C        0.20950000      -1.85490000       0.67940000
C       -0.36230000      -1.75660000       2.11510000
O       -1.47610000      -0.97410000       1.65550000
C       -1.06260000      -1.08170000       0.27690000
C       -0.76000000      -3.09910000       2.69730000
O       -1.86880000      -3.55660000       2.67000000
H        0.74870000       1.59400000      -0.72600000
H        0.58860000      -2.79160000       0.27710000
H        0.28890000      -1.21980000       2.81750000
H       -1.86040000      -1.38070000      -0.40040000
H        0.10240000      -3.65290000       3.13770000
