18
Properties=species:S:1:pos:R:3 gdb_88706=T pbc="F F F"
C       -0.26730000       1.53490000       0.04260000
C       -0.01700000       0.04630000       0.06920000
N        1.33330000      -0.42270000      -0.27370000
C        0.81800000      -0.65350000       1.08870000
C        1.54110000       0.06440000       2.17730000
O        0.91260000       0.09970000       3.45850000
C        2.13590000      -0.64570000       3.33540000
C        2.06260000      -2.07370000       3.49050000
C        2.03610000      -3.26710000       3.63480000
H        0.60630000       2.09380000       0.38490000
H       -0.49320000       1.86480000      -0.97690000
H       -1.11830000       1.79630000       0.68020000
H       -0.84870000      -0.54920000      -0.30680000
H        1.30140000      -1.28260000      -0.81350000
H        0.50980000      -1.66070000       1.35830000
H        2.02460000       0.99400000       1.87930000
H        2.98890000      -0.17680000       3.82560000
H        2.00660000      -4.32050000       3.76750000
