18
Properties=species:S:1:pos:R:3 gdb_52442=T pbc="F F F"
O       -0.03750000       0.44030000      -0.94610000
C        0.03600000       1.24080000      -0.03700000
N        1.16440000       1.53980000       0.65740000
C        2.45820000       0.95560000       0.35970000
C        3.50450000       2.03330000       0.12100000
O        3.56520000       2.82710000       1.29340000
C        4.46080000       3.91750000       1.17590000
C        4.44380000       4.70760000       2.39920000
C        4.44580000       5.37590000       3.39660000
H       -0.83450000       1.82060000       0.32890000
H        1.13340000       2.24950000       1.37240000
H        2.78670000       0.31320000       1.18630000
H        2.33530000       0.33470000      -0.53020000
H        4.48300000       1.57260000      -0.09010000
H        3.22490000       2.65200000      -0.74680000
H        5.48360000       3.55360000       0.98070000
H        4.18240000       4.55270000       0.31790000
H        4.44660000       5.96390000       4.28110000
