19
Properties=species:S:1:pos:R:3 gdb_68993=T pbc="F F F"
C        0.14140000       1.49770000      -0.01840000
C        0.06230000       0.00900000       0.06540000
C       -0.93960000      -0.80550000       0.82540000
C        0.54520000      -1.03590000       1.06550000
C        1.12460000      -1.73920000      -0.15620000
O        0.55560000      -0.74500000      -1.05020000
C        1.19870000      -0.91290000       2.38630000
C        2.04910000      -1.97260000       2.95030000
O        2.62840000      -0.79110000       2.39490000
H        1.16370000       1.82240000      -0.23340000
H       -0.51100000       1.86850000      -0.81720000
H       -0.18290000       1.95530000       0.92050000
H       -1.44940000      -0.28590000       1.63200000
H       -1.53540000      -1.55720000       0.31400000
H        2.21850000      -1.70370000      -0.18430000
H        0.76950000      -2.75200000      -0.38140000
H        0.69530000      -0.24760000       3.08980000
H        2.13980000      -2.07900000       4.03060000
H        2.21550000      -2.88640000       2.38080000
