17
Properties=species:S:1:pos:R:3 gdb_32758=T pbc="F F F"
C        0.84510000       1.15740000      -0.61790000
C        0.07510000       0.06560000       0.10990000
O       -0.51920000      -0.88230000      -0.80300000
C        0.25150000      -1.92640000      -1.17330000
C        1.29120000      -2.10510000      -2.05370000
O        1.90520000      -1.15380000      -2.80150000
N        1.67680000      -3.41260000      -2.10160000
C        0.88070000      -4.05030000      -1.26440000
N        0.00760000      -3.20070000      -0.66950000
H        1.67720000       0.73870000      -1.18790000
H        0.18680000       1.68800000      -1.31180000
H        1.23950000       1.87940000       0.10540000
H        0.71840000      -0.47150000       0.81780000
H       -0.76780000       0.48920000       0.66550000
H        2.58870000      -1.61350000      -3.30390000
H        0.89610000      -5.11010000      -1.06360000
H       -0.72990000      -3.42620000      -0.02310000
