20
Properties=species:S:1:pos:R:3 gdb_92141=T pbc="F F F"
O        0.15370000       1.32460000      -0.41120000
C        0.03050000      -0.03520000       0.01070000
C        0.76600000      -0.30900000       1.35100000
C       -0.23450000      -0.71700000       2.44170000
C       -1.32600000       0.36710000       2.57260000
C       -2.19500000       0.07400000       1.35940000
C       -1.46570000      -0.28120000       0.11480000
N       -2.03280000      -1.34830000       0.96380000
C       -1.05200000      -1.91250000       1.91450000
H        1.07580000       1.47850000      -0.64160000
H        0.43420000      -0.69430000      -0.77270000
H        1.51570000      -1.09770000       1.22190000
H        1.29780000       0.60370000       1.64120000
H        0.27650000      -0.92710000       3.38460000
H       -1.90700000       0.24090000       3.49300000
H       -0.91690000       1.38200000       2.56660000
H       -3.19960000       0.48210000       1.30780000
H       -1.98680000      -0.16970000      -0.83260000
H       -0.43410000      -2.67280000       1.42440000
H       -1.61680000      -2.40260000       2.71500000
