20
Properties=species:S:1:pos:R:3 gdb_116744=T pbc="F F F"
C        0.08390000       1.27290000       0.39510000
C        0.37390000      -0.19700000       0.71260000
N        0.85440000      -1.06300000      -0.35240000
C        1.02830000      -0.59970000      -1.51800000
N        1.48620000      -1.42630000      -2.52970000
C        1.70840000      -1.02550000      -3.82920000
N        1.50820000       0.16640000      -4.22110000
O        2.15230000      -2.10750000      -4.52810000
C        2.44440000      -1.91170000      -5.90250000
H        0.97830000       1.79910000       0.04480000
H       -0.69270000       1.37970000      -0.36970000
H       -0.26750000       1.78050000       1.29860000
H        1.11020000      -0.25210000       1.52660000
H       -0.53350000      -0.66420000       1.12000000
H        0.85870000       0.42130000      -1.86110000
H        1.66830000      -2.39010000      -2.29610000
H        1.71900000       0.29940000      -5.20360000
H        1.55480000      -1.59460000      -6.45920000
H        3.24220000      -1.17250000      -6.04040000
H        2.77960000      -2.87880000      -6.27860000
