15
Properties=species:S:1:pos:R:3 gdb_67324=T pbc="F F F"
O        0.16400000       1.32440000       0.04350000
C        0.07980000      -0.03730000      -0.02350000
C        0.33540000      -1.01290000       1.16090000
O       -1.03970000      -1.00490000       1.63380000
C       -1.16520000      -0.98890000       0.18250000
C        0.03630000      -1.94990000      -0.05200000
C        0.73850000      -1.00220000      -1.06080000
C        0.24780000      -0.94400000      -2.42190000
C       -0.18140000      -0.85750000      -3.54290000
H       -0.16970000       1.69330000      -0.78310000
H        1.14900000      -1.04040000       1.88420000
H       -2.15720000      -0.98100000      -0.26490000
H        0.00820000      -3.03560000      -0.04570000
H        1.83250000      -1.02630000      -1.02490000
H       -0.55070000      -0.80150000      -4.53700000
