18
Properties=species:S:1:pos:R:3 gdb_32828=T pbc="F F F"
O       -0.14180000       0.34530000       1.24850000
C       -0.14570000       0.22900000      -0.18590000
C       -1.39360000      -0.54470000      -0.60610000
C       -1.38900000      -2.00850000      -0.26110000
C       -1.24500000      -2.57530000       0.99210000
O       -1.03920000      -2.04680000       2.21590000
N       -1.35410000      -3.93110000       0.87860000
C       -1.56790000      -4.27090000      -0.44580000
C       -1.58990000      -3.10460000      -1.16330000
H        0.71990000       0.66570000       1.53110000
H       -0.15620000       1.23610000      -0.62630000
H        0.75630000      -0.29450000      -0.52850000
H       -2.25910000      -0.02600000      -0.16860000
H       -1.49450000      -0.43950000      -1.69200000
H       -0.73930000      -1.12760000       2.07240000
H       -1.26040000      -4.56320000       1.65390000
H       -1.68590000      -5.29940000      -0.74260000
H       -1.74480000      -3.02080000      -2.22930000
