20
Properties=species:S:1:pos:R:3 gdb_39455=T pbc="F F F"
C        0.07650000       1.41790000      -0.34220000
C        1.27560000       0.62760000       0.13270000
C        1.88580000       0.81460000       1.50330000
C        2.60860000      -0.46030000       1.97530000
C        1.80290000      -1.74860000       1.72680000
N        0.53920000      -1.77710000       2.44490000
C       -0.51170000      -1.16010000       2.13350000
O       -0.87180000      -0.30800000       1.12480000
C       -0.06910000      -0.03700000      -0.00310000
H       -0.37130000       2.11000000       0.36330000
H        0.01800000       1.72340000      -1.38070000
H        1.98900000       0.34740000      -0.64020000
H        2.58990000       1.65470000       1.49140000
H        1.10080000       1.08350000       2.21760000
H        3.56690000      -0.56180000       1.44980000
H        2.84010000      -0.37720000       3.04290000
H        1.67290000      -1.89640000       0.64780000
H        2.39440000      -2.59710000       2.08740000
H       -1.38700000      -1.25370000       2.77750000
H       -0.22340000      -0.75620000      -0.80270000
