16
Properties=species:S:1:pos:R:3 gdb_38223=T pbc="F F F"
C       -0.04230000       1.63030000       0.09540000
C        1.42430000       1.18660000      -0.00580000
O        1.12480000       0.05710000       0.93220000
C        0.00300000       0.07970000      -0.04300000
C       -1.11430000      -0.87200000      -0.31910000
N       -1.49250000      -0.66530000      -1.73150000
C       -0.76160000      -0.02460000      -2.54340000
O        0.47390000       0.56000000      -2.38580000
C        1.04800000       0.19510000      -1.13980000
H       -0.34850000       1.98980000       1.07780000
H       -0.45950000       2.21000000      -0.72890000
H        2.34710000       1.73700000       0.17120000
H       -0.79750000      -1.91220000      -0.17930000
H       -2.00360000      -0.71250000       0.29810000
H       -1.10070000       0.13600000      -3.56480000
H        1.72570000      -0.65300000      -1.25300000
