19
Properties=species:S:1:pos:R:3 gdb_107708=T pbc="F F F"
C       -0.10500000       1.55980000      -0.09010000
C       -0.10340000       0.02620000      -0.09220000
C       -1.47530000      -0.55300000       0.03300000
O       -2.48690000      -0.25700000      -0.98220000
C       -3.22190000      -1.11960000      -0.06150000
C       -4.64850000      -1.45920000      -0.33210000
C       -1.97960000      -2.01550000       0.26530000
O       -2.10730000      -1.86670000       1.70820000
C       -2.50760000      -0.55760000       1.21290000
H        0.90850000       1.94980000      -0.21900000
H       -0.72840000       1.94640000      -0.90070000
H       -0.49920000       1.95160000       0.85310000
H        0.34920000      -0.35040000      -1.01760000
H        0.49710000      -0.36390000       0.73850000
H       -4.74750000      -1.97950000      -1.28950000
H       -5.02560000      -2.11030000       0.46230000
H       -5.26220000      -0.55390000      -0.36530000
H       -1.64600000      -2.96960000      -0.14420000
H       -2.80200000       0.21330000       1.92560000
