13
Properties=species:S:1:pos:R:3 gdb_43503=T pbc="F F F"
N       -0.13760000       1.27840000       0.00890000
C       -0.02860000       0.01730000       0.00080000
N       -1.08260000      -0.88260000       0.00250000
C       -0.59460000      -2.18300000      -0.00870000
C        0.77270000      -2.22290000      -0.01800000
C        1.24880000      -0.84960000      -0.01290000
O        2.36650000      -0.37760000      -0.01740000
C       -1.49580000      -3.27080000      -0.00930000
C       -2.27940000      -4.18430000      -0.00970000
H        0.80840000       1.67270000       0.00490000
H       -2.05660000      -0.63300000       0.01000000
H        1.37770000      -3.11420000      -0.02730000
H       -2.96070000      -5.00030000      -0.01010000
