17
Properties=species:S:1:pos:R:3 gdb_41017=T pbc="F F F"
C       -0.00610000       1.47760000       0.26290000
O        1.42070000       1.52700000      -0.10880000
C        1.20030000       0.34330000      -0.86830000
C       -0.00460000      -0.04680000      -0.07600000
N       -0.74320000      -0.85340000      -1.05430000
C        0.33510000      -1.05550000      -2.03440000
C        0.85290000       0.33790000      -2.40680000
N        2.25050000      -0.13650000      -2.71200000
C        1.88310000      -0.89370000      -1.47410000
H       -0.15190000       1.77060000       1.30480000
H       -0.60980000       2.09710000      -0.40940000
H        0.24980000      -0.60710000       0.83060000
H       -1.09120000      -1.71760000      -0.65480000
H        0.15600000      -1.80100000      -2.80990000
H        0.34410000       1.10340000      -2.99230000
H        2.22530000      -0.76140000      -3.52440000
H        2.54060000      -1.62830000      -1.00700000
