16
Properties=species:S:1:pos:R:3 gdb_44405=T pbc="F F F"
O       -0.06710000      -0.02070000      -0.36300000
C       -0.09390000       1.12830000      -0.07180000
C       -1.23170000       2.18820000       0.27810000
N       -0.16360000       2.86340000       1.04940000
C        0.68520000       4.12050000       0.98460000
C        1.90670000       3.09270000       1.12800000
C        0.89040000       2.30680000       0.19660000
C        0.93160000       3.25970000      -1.06480000
C        0.78370000       4.45920000      -0.50710000
H       -1.56900000       2.67430000      -0.64850000
H       -2.08410000       1.85440000       0.87260000
H        0.49470000       4.89950000       1.72110000
H        2.86140000       3.40540000       0.70500000
H        1.99970000       2.66520000       2.12700000
H        1.09740000       2.96250000      -2.09030000
H        0.77290000       5.44600000      -0.94690000
