14
Properties=species:S:1:pos:R:3 gdb_133184=T pbc="F F F"
C       -0.03440000       1.49540000      -0.00070000
C       -0.00490000      -0.00280000      -0.03750000
N       -0.02670000      -0.63210000      -1.16400000
C        0.00090000      -2.03020000      -1.18560000
N       -0.02030000      -2.65280000      -2.29930000
N        0.05220000      -2.64670000       0.08090000
N        0.07600000      -2.02010000       1.26830000
C        0.04830000      -0.74390000       1.20890000
F        0.06950000      -0.06400000       2.35080000
H        0.85120000       1.88360000       0.51420000
H       -0.07130000       1.88380000      -1.01790000
H       -0.90460000       1.84760000       0.56380000
H        0.00440000      -3.66420000      -2.16440000
H        0.07470000      -3.65310000       0.14480000
