20
Properties=species:S:1:pos:R:3 gdb_69356=T pbc="F F F"
C        0.08420000       1.51590000      -0.02700000
C       -0.08950000       0.02940000       0.05370000
C       -1.43770000      -0.71750000       0.08060000
C       -0.82420000      -1.77930000       1.04980000
C       -1.40530000      -1.77450000       2.46000000
C       -0.66560000      -3.17270000       0.50280000
O       -0.68720000      -3.45140000      -0.67380000
C        0.53820000      -1.00140000       0.95160000
N        0.97660000      -0.84350000      -0.42270000
H        1.13000000       1.78660000       0.13850000
H       -0.20640000       1.88660000      -1.01730000
H       -0.53590000       2.02860000       0.71610000
H       -2.23970000      -0.15290000       0.56350000
H       -1.78890000      -1.09530000      -0.88300000
H       -2.44730000      -2.11190000       2.46360000
H       -0.83460000      -2.43360000       3.12450000
H       -1.37540000      -0.76740000       2.88630000
H       -0.45180000      -3.95760000       1.26540000
H        1.26140000      -0.92020000       1.75700000
H        0.65700000      -1.59480000      -1.03370000
