21
Properties=species:S:1:pos:R:3 gdb_115942=T pbc="F F F"
O       -0.01030000       1.42420000      -0.02140000
C        0.02280000       0.00410000      -0.00890000
C       -1.41050000      -0.51330000       0.01720000
C       -2.17930000      -0.09470000      -1.23840000
O       -3.55530000      -0.43500000      -1.15990000
C       -3.84080000      -1.75590000      -0.80630000
C       -3.25030000      -2.94200000      -1.51840000
C       -2.83510000      -2.62010000      -0.08800000
C       -1.44620000      -2.04380000       0.18200000
H        0.89280000       1.74810000      -0.08110000
H        0.54040000      -0.38940000      -0.90050000
H        0.56360000      -0.37430000       0.87370000
H       -1.91880000      -0.05040000       0.87270000
H       -2.14880000       0.98900000      -1.36060000
H       -1.71330000      -0.54510000      -2.13230000
H       -4.88120000      -1.81910000      -0.50530000
H       -3.88800000      -3.80050000      -1.70010000
H       -2.51310000      -2.76540000      -2.29490000
H       -3.22480000      -3.27410000       0.68540000
H       -0.70980000      -2.50060000      -0.49320000
H       -1.13090000      -2.30660000       1.19720000
