10
Properties=species:S:1:pos:R:3 gdb_21757=T pbc="F F F"
O       -0.13520000       1.26710000       0.01020000
N        1.17180000       1.88230000       0.00080000
C        2.04800000       0.90520000      -0.01270000
C        1.41920000      -0.37030000      -0.01330000
C        0.09580000      -0.02820000       0.00120000
O       -0.73400000      -1.04940000       0.00380000
N        0.11120000      -2.22080000      -0.01060000
C        1.35120000      -1.79070000      -0.02010000
H        3.09520000       1.17320000      -0.02130000
H        2.13730000      -2.53260000      -0.03160000
