22
Properties=species:S:1:pos:R:3 gdb_60588=T pbc="F F F"
C        0.68100000       1.62050000       0.75680000
C        0.34960000       0.29000000       0.08000000
C        1.18270000       0.12070000      -1.18900000
C        0.76400000      -0.92680000      -2.24620000
C        0.70580000       0.27710000      -3.20530000
O        0.96140000       1.20210000      -2.12790000
N        0.65330000      -0.81980000       0.98420000
C       -0.30760000      -1.08390000       2.04770000
C       -0.17880000      -2.01590000       0.89510000
H        1.72270000       1.62580000       1.09300000
H        0.53330000       2.44320000       0.05370000
H        0.04130000       1.78520000       1.62900000
H       -0.71880000       0.29270000      -0.20960000
H        2.24240000       0.05600000      -0.90540000
H        1.49700000      -1.70050000      -2.47690000
H       -0.20360000      -1.39420000      -2.05490000
H        1.50050000       0.30510000      -3.96220000
H       -0.25490000       0.47390000      -3.69510000
H        0.11340000      -1.33530000       3.01700000
H       -1.20830000      -0.47260000       2.08710000
H       -0.99720000      -2.02160000       0.17700000
H        0.33940000      -2.96480000       1.00080000
