21
Properties=species:S:1:pos:R:3 gdb_68631=T pbc="F F F"
C       -0.21810000       1.49850000      -0.01230000
C       -0.09100000      -0.00700000      -0.01070000
C        0.41710000      -0.81480000      -1.24830000
C       -0.27760000      -2.00520000      -0.53020000
C        0.59100000      -2.16430000       0.73350000
C        0.74870000      -0.65800000       1.11660000
C       -1.34270000      -0.94090000      -0.07900000
C       -2.22890000      -1.21520000       1.09980000
O       -2.13240000      -0.70700000       2.19100000
H        0.76770000       1.97430000      -0.06930000
H       -0.80880000       1.85240000      -0.86420000
H       -0.70470000       1.84660000       0.90480000
H       -0.08220000      -0.52670000      -2.17720000
H        1.49870000      -0.88010000      -1.40270000
H       -0.57530000      -2.90800000      -1.06370000
H        0.09660000      -2.74750000       1.51560000
H        1.54480000      -2.65000000       0.50850000
H        1.78900000      -0.32070000       1.07100000
H        0.35270000      -0.42910000       2.10620000
H       -1.98690000      -0.69340000      -0.93290000
H       -3.03480000      -1.96120000       0.89630000
