16
Properties=species:S:1:pos:R:3 gdb_84934=T pbc="F F F"
C       -1.02340000       0.95510000       0.06310000
C        0.34450000       0.27340000       0.05630000
N        1.10820000       0.75740000      -1.09540000
C        2.34260000       0.60610000      -1.29050000
O        3.30130000      -0.03780000      -0.56620000
C        2.86380000      -0.81320000       0.52920000
O        2.30370000      -0.03540000       1.55800000
C        1.05070000       0.50510000       1.40500000
O        0.58560000       1.12780000       2.31190000
H       -0.90730000       2.03340000       0.19030000
H       -1.52070000       0.76570000      -0.89060000
H       -1.64260000       0.57760000       0.87920000
H        0.18210000      -0.80870000      -0.04880000
H        2.80880000       1.04650000      -2.17020000
H        2.17120000      -1.59070000       0.19000000
H        3.76210000      -1.26530000       0.94750000
