20
Properties=species:S:1:pos:R:3 gdb_121701=T pbc="F F F"
C       -0.23470000       1.37390000      -0.38910000
C       -0.36630000      -0.14400000      -0.34830000
N       -1.05820000      -0.58310000       0.87020000
H       -0.58060000      -0.22600000       1.68900000
H       -2.94390000      -0.64290000       0.57700000
C       -1.24660000      -2.02980000       0.97340000
C       -2.54300000      -2.41810000       0.27300000
O       -3.44120000      -1.42530000       0.24650000
C       -2.77620000      -3.64770000      -0.23090000
H       -1.98930000      -4.39210000      -0.17170000
C       -4.02890000      -4.05140000      -0.85010000
O       -4.24410000      -5.16140000      -1.29860000
H        0.26940000       1.68990000      -1.30650000
H       -1.21710000       1.85350000      -0.35130000
H        0.35570000       1.74310000       0.45740000
H       -0.95290000      -0.49320000      -1.20600000
H        0.62750000      -0.61410000      -0.43550000
H       -0.40950000      -2.61620000       0.57060000
H       -1.34350000      -2.28470000       2.03560000
H       -4.80540000      -3.25890000      -0.89480000
