23
Properties=species:S:1:pos:R:3 gdb_101102=T pbc="F F F"
C       -0.01460000       1.56090000      -0.02590000
C       -0.00030000       0.03180000       0.03260000
C       -1.40700000      -0.58190000       0.01480000
O       -2.14390000      -0.17990000      -1.14140000
C       -1.39160000      -2.08930000       0.13320000
C       -0.80500000      -2.96570000       1.28550000
C       -1.40250000      -3.96840000       0.25830000
C       -2.63610000      -3.02860000       0.15960000
C       -0.74380000      -3.11410000      -0.86040000
H        1.00070000       1.96640000      -0.07060000
H       -0.56490000       1.90570000      -0.90500000
H       -0.50500000       1.98350000       0.85810000
H        0.56700000      -0.37080000      -0.81880000
H        0.52170000      -0.30870000       0.93530000
H       -1.98170000      -0.17430000       0.85790000
H       -1.71220000      -0.57660000      -1.90680000
H        0.28300000      -2.96830000       1.39910000
H       -1.30810000      -2.89580000       2.25440000
H       -1.40630000      -5.05630000       0.33030000
H       -3.27650000      -2.96190000       1.04400000
H       -3.22660000      -3.07890000      -0.75850000
H       -1.19260000      -3.18870000      -1.85600000
H        0.34880000      -3.13060000      -0.91220000
