19
Properties=species:S:1:pos:R:3 gdb_113732=T pbc="F F F"
C       -0.14060000       1.46360000      -0.60910000
C        0.02210000       0.21490000       0.26690000
C       -1.29380000      -0.49430000       0.47590000
O       -1.82180000      -1.26370000      -0.61950000
C       -1.48370000      -1.94740000       0.58500000
C       -0.33900000      -2.95280000       0.52310000
O        0.25580000      -3.10590000       1.81040000
C       -0.80100000      -4.23180000      -0.02010000
C       -1.21180000      -5.29080000      -0.41350000
H        0.81680000       1.97410000      -0.74710000
H       -0.52960000       1.19380000      -1.59540000
H       -0.83850000       2.17670000      -0.15700000
H        0.74920000      -0.46200000      -0.19020000
H        0.42170000       0.49190000       1.25060000
H       -2.05330000       0.12110000       0.96550000
H       -2.34210000      -2.30880000       1.15630000
H        0.44650000      -2.55300000      -0.12460000
H       -0.29010000      -3.72070000       2.31260000
H       -1.56050000      -6.22390000      -0.78250000
