25
Properties=species:S:1:pos:R:3 gdb_60379=T pbc="F F F"
C        0.00370000       1.44090000      -0.42170000
C       -0.05010000      -0.02440000       0.02610000
C        0.64740000      -0.22910000       1.37640000
C       -1.49010000      -0.53450000       0.09480000
O       -2.06370000      -0.46230000      -1.20160000
C       -3.44360000      -0.70720000      -1.26210000
C       -3.85430000      -2.14400000      -1.01920000
C       -4.35300000       0.42310000      -0.84030000
C       -4.14760000       0.10080000      -2.30910000
H        1.03850000       1.77930000      -0.53710000
H       -0.51190000       1.57410000      -1.37530000
H       -0.47770000       2.09210000       0.31880000
H        0.46530000      -0.63380000      -0.72840000
H        0.15020000       0.34440000       2.16810000
H        0.64730000      -1.28240000       1.67680000
H        1.68830000       0.10620000       1.33220000
H       -1.49930000      -1.57100000       0.46560000
H       -2.07580000       0.07370000       0.80370000
H       -3.63180000      -2.46450000       0.00410000
H       -4.92930000      -2.26890000      -1.17670000
H       -3.32650000      -2.81190000      -1.70830000
H       -5.30730000       0.18410000      -0.38280000
H       -3.88260000       1.32420000      -0.46330000
H       -3.53550000       0.78480000      -2.88540000
H       -4.95930000      -0.36180000      -2.86000000
