15
Properties=species:S:1:pos:R:3 gdb_19998=T pbc="F F F"
N       -0.20090000      -1.11600000       0.36860000
C       -0.09950000       0.02780000       0.23590000
C        0.01220000       1.45780000       0.04340000
O        0.58470000       2.20620000       1.11760000
C        1.33740000       2.10760000      -0.09390000
C        2.62120000       1.36120000      -0.06030000
C        3.53890000       1.43050000      -1.26020000
C        3.91910000       2.13280000       0.01290000
H       -0.85690000       1.91220000      -0.42900000
H        1.34990000       3.03010000      -0.67840000
H        2.57870000       0.41840000       0.47410000
H        4.06760000       0.52660000      -1.53850000
H        3.22740000       2.03950000      -2.10270000
H        3.86340000       3.21620000       0.03320000
H        4.71420000       1.71710000       0.62050000
