21
Properties=species:S:1:pos:R:3 gdb_71578=T pbc="F F F"
C       -0.02220000       1.50170000       0.12360000
C        0.02550000      -0.00290000       0.01970000
C        0.90160000      -0.74550000      -1.03250000
C        0.83150000      -1.92170000      -0.04860000
C        0.70800000      -0.94840000       1.13440000
O       -0.30210000      -1.71820000       1.78760000
C       -0.67290000      -2.12330000       0.42280000
C       -1.41890000      -3.42280000       0.34180000
C       -1.29160000      -0.80510000      -0.09000000
H        0.98220000       1.92740000       0.22620000
H       -0.48060000       1.94970000      -0.76600000
H       -0.61040000       1.81740000       0.99270000
H        0.49580000      -0.85790000      -2.04280000
H        1.91910000      -0.34500000      -1.08980000
H        1.48400000      -2.79370000      -0.05800000
H        1.50730000      -0.56730000       1.76960000
H       -2.37460000      -3.35060000       0.87180000
H       -1.62530000      -3.67780000      -0.70270000
H       -0.83890000      -4.23440000       0.79010000
H       -2.08150000      -0.46890000       0.58650000
H       -1.67400000      -0.84590000      -1.11450000
