14
Properties=species:S:1:pos:R:3 gdb_34553=T pbc="F F F"
N        0.04650000      -1.06130000       0.18920000
C       -0.02460000       0.08820000       0.08970000
C       -0.08410000       1.51440000      -0.02960000
N       -1.17310000       2.17950000      -0.07440000
C       -0.73600000       3.58220000      -0.03330000
C       -0.16300000       3.80100000       1.41520000
C        1.20710000       3.41390000       0.86220000
C        0.74420000       3.58520000      -0.53890000
N        1.15060000       2.24250000      -0.10180000
H       -1.47900000       4.27520000      -0.41710000
H       -0.16390000       4.86190000       1.67450000
H       -0.61300000       3.21120000       2.21740000
H        2.17560000       3.57890000       1.31560000
H        1.19610000       4.03520000      -1.41480000
