19
Properties=species:S:1:pos:R:3 gdb_63009=T pbc="F F F"
C        0.00210000       1.55200000       0.06700000
C        0.01670000       0.02520000       0.00730000
O       -1.31410000      -0.50040000      -0.03320000
C        0.70450000      -0.55910000      -1.23590000
C        2.17270000      -0.34800000      -1.48970000
C        1.70700000      -1.61410000      -0.81070000
C        1.72480000      -1.59810000       0.70200000
O        2.14590000      -0.34720000       1.28150000
C        0.74450000      -0.62440000       1.19610000
H        1.01890000       1.94910000       0.11550000
H       -0.49730000       1.96250000      -0.81520000
H       -0.53400000       1.90110000       0.95870000
H       -1.82100000      -0.07160000       0.66480000
H        0.04750000      -0.71480000      -2.08350000
H        2.50040000      -0.42990000      -2.52050000
H        2.72360000       0.36370000      -0.88820000
H        1.79140000      -2.57020000      -1.31230000
H        2.01980000      -2.48370000       1.25720000
H        0.21980000      -0.70450000       2.14780000
