20
Properties=species:S:1:pos:R:3 gdb_58179=T pbc="F F F"
C       -0.07600000       1.48960000       0.10290000
C       -0.02410000      -0.04400000       0.08580000
C        0.73180000      -0.61760000       1.28730000
N       -1.38460000      -0.61550000      -0.03100000
C       -2.20020000      -0.70380000       1.17560000
C       -1.81010000      -0.93770000      -1.27870000
O       -1.14190000      -0.77980000      -2.29530000
C       -3.19740000      -1.55300000      -1.54840000
O       -4.16320000      -1.61510000      -0.83370000
H        0.93820000       1.89930000       0.13820000
H       -0.56420000       1.86510000      -0.80000000
H       -0.61730000       1.86910000       0.97650000
H        0.48470000      -0.35290000      -0.82890000
H        0.30920000      -0.29120000       2.24260000
H        0.73880000      -1.71160000       1.26770000
H        1.76950000      -0.27370000       1.25410000
H       -3.22320000      -0.95650000       0.91590000
H       -1.80740000      -1.46270000       1.86070000
H       -2.19820000       0.25870000       1.69890000
H       -3.20710000      -1.91190000      -2.59730000
