9
Properties=species:S:1:pos:R:3 gdb_23877=T pbc="F F F"
F        0.71160000       0.28170000       0.15560000
C       -0.06140000       1.34110000       0.01030000
F        0.69500000       2.40100000      -0.31350000
F       -0.92120000       1.12790000      -0.99750000
C       -0.86270000       1.66980000       1.29180000
O       -0.77030000       1.01680000       2.28870000
C       -1.78720000       2.90750000       1.17270000
O       -2.45860000       3.26130000       2.09940000
H       -1.78260000       3.42770000       0.19450000
