17
Properties=species:S:1:pos:R:3 gdb_6694=T pbc="F F F"
C        0.04730000       1.56570000       0.04190000
C        0.02930000       0.03340000       0.03600000
C        0.73740000      -0.54320000       1.26710000
C       -1.41990000      -0.51810000      -0.03690000
C       -2.12970000      -0.14840000      -1.24900000
C       -2.70350000       0.15920000      -2.26770000
C       -3.35540000       0.50530000      -3.41580000
N       -3.90980000       0.80040000      -4.39340000
H        1.07530000       1.94010000       0.05330000
H       -0.45200000       1.97660000      -0.84010000
H       -0.46010000       1.95910000       0.93090000
H        0.55330000      -0.31630000      -0.86230000
H        0.23560000      -0.23160000       2.19090000
H        0.75550000      -1.63790000       1.24730000
H        1.77220000      -0.19160000       1.31800000
H       -1.39960000      -1.61320000       0.03620000
H       -1.98880000      -0.16210000       0.83330000
