18
Properties=species:S:1:pos:R:3 gdb_67226=T pbc="F F F"
C       -0.06560000       1.54450000       0.09600000
C       -0.04480000       0.05140000      -0.01070000
C        0.69830000      -0.86070000      -1.09120000
C        1.88910000      -0.80860000      -0.14340000
N        0.88510000      -0.69960000       0.98660000
C        0.27440000      -2.06800000       0.89640000
C       -0.29180000      -1.98050000      -0.54180000
C       -1.26080000      -0.81830000      -0.30700000
O       -2.41110000      -0.58340000      -0.54170000
H        0.93550000       1.97480000      -0.00430000
H       -0.70990000       1.97210000      -0.67770000
H       -0.45910000       1.84270000       1.07260000
H        0.70210000      -0.66140000      -2.16180000
H        2.57790000      -1.65570000      -0.07100000
H        2.46000000       0.11870000      -0.22800000
H        1.03930000      -2.83410000       1.04060000
H       -0.50220000      -2.19870000       1.65560000
H       -0.55930000      -2.87630000      -1.09590000
