17
Properties=species:S:1:pos:R:3 gdb_67439=T pbc="F F F"
N       -0.19970000       1.49980000      -0.07120000
C       -0.11140000       0.07840000      -0.08260000
C       -1.25920000      -0.86650000       0.30960000
C       -0.62190000      -1.90000000      -0.71850000
C        0.55220000      -0.91400000      -1.07970000
O        1.75770000      -1.04390000      -0.20080000
C        0.90230000      -0.63650000       0.80960000
N        0.54680000      -1.24850000       1.85690000
C       -0.95140000      -1.11320000       1.81840000
H        0.71470000       1.93270000      -0.15850000
H       -0.77620000       1.83950000      -0.83420000
H       -2.28870000      -0.57840000       0.08750000
H       -0.32270000      -2.87360000      -0.32790000
H       -1.27020000      -2.04310000      -1.58630000
H        0.85490000      -0.75490000      -2.11350000
H       -1.33510000      -0.30570000       2.45450000
H       -1.36320000      -2.05810000       2.18570000
