15
Properties=species:S:1:pos:R:3 gdb_3492=T pbc="F F F"
C       -0.02210000       1.59170000       0.00610000
C        1.48800000       1.80200000      -0.00110000
C        2.10100000       0.63450000       0.78120000
C        0.94250000      -0.24580000       1.23720000
C        0.04940000       0.04780000       0.01050000
O        0.92520000      -0.23340000      -1.09550000
C        2.01900000       0.58810000      -0.72640000
H       -0.52120000       1.99370000       0.89230000
H       -0.50910000       1.97660000      -0.89410000
H        1.95680000       2.77450000      -0.06290000
H        3.03720000       0.71650000       1.31600000
H        1.21280000      -1.30330000       1.30340000
H        0.48620000       0.07480000       2.17800000
H       -0.87670000      -0.51220000      -0.09960000
H        2.85410000       0.56730000      -1.41170000
