19
Properties=species:S:1:pos:R:3 gdb_100252=T pbc="F F F"
C        0.06220000       1.48420000       0.05020000
C        0.04710000       0.02830000       0.02510000
C       -0.00190000      -1.17540000      -0.01080000
C        0.02790000      -2.63960000      -0.03650000
O       -1.29680000      -3.15430000      -0.04150000
C        0.76060000      -3.11480000      -1.31520000
O        0.57580000      -4.51570000      -1.49520000
C        0.75090000      -3.14970000       1.23630000
O        2.07770000      -2.67470000       1.34600000
H        1.00830000       1.87820000      -0.33660000
H       -0.74460000       1.89280000      -0.56760000
H       -0.06950000       1.86860000       1.06730000
H       -1.22000000      -4.02120000      -0.46680000
H        0.30790000      -2.63010000      -2.18340000
H        1.81930000      -2.84260000      -1.25950000
H        1.23170000      -4.97850000      -0.96440000
H        0.13280000      -2.88430000       2.10410000
H        0.81020000      -4.24310000       1.19480000
H        2.02680000      -1.71090000       1.35150000
