19
Properties=species:S:1:pos:R:3 gdb_117744=T pbc="F F F"
C       -0.36460000       1.60030000       0.04040000
C        0.01000000       0.11890000       0.04420000
C        1.03240000      -0.28090000       1.14270000
C        0.59770000       0.15430000       2.54710000
O       -0.74740000      -0.18470000       2.84490000
C       -1.23410000      -0.76590000       0.18760000
O       -1.18950000      -1.95930000       0.36330000
C        0.64360000      -0.29060000      -1.29490000
O        0.86030000       0.46550000      -2.20280000
H        0.52820000       2.22860000      -0.00710000
H       -0.97280000       1.83920000      -0.83600000
H       -0.93200000       1.85820000       0.93800000
H        1.15250000      -1.36940000       1.11150000
H        2.01150000       0.16220000       0.92350000
H        1.29310000      -0.27130000       3.28540000
H        0.65220000       1.24240000       2.64510000
H       -0.83580000      -1.14350000       2.79970000
H       -2.20070000      -0.23450000       0.05880000
H        0.90100000      -1.36990000      -1.35360000
