19
Properties=species:S:1:pos:R:3 gdb_89967=T pbc="F F F"
C       -0.92490000       1.15870000       0.25000000
C        0.02470000      -0.00370000      -0.00700000
C        0.92380000      -0.02510000      -1.28930000
C        2.16810000      -0.37990000      -0.43350000
C        2.88210000      -1.75240000      -0.54100000
O        4.16920000      -1.13040000      -0.68470000
C        3.58760000       0.18650000      -0.61690000
C        1.32770000      -0.06340000       0.80870000
O        1.60930000       0.17010000       1.94970000
H       -0.41130000       2.11870000       0.13340000
H       -1.76960000       1.13990000      -0.44560000
H       -1.31960000       1.11330000       1.26920000
H       -0.50470000      -0.95930000       0.10320000
H        0.65220000      -0.74970000      -2.05970000
H        1.00830000       0.96430000      -1.74910000
H        2.82790000      -2.38840000       0.35110000
H        2.60050000      -2.33840000      -1.42620000
H        3.74340000       0.75830000      -1.54080000
H        3.96260000       0.75860000       0.24050000
