17
Properties=species:S:1:pos:R:3 gdb_126956=T pbc="F F F"
C       -0.04300000       1.47940000      -0.05570000
C       -0.04610000      -0.03580000       0.11520000
N       -1.39340000      -0.56490000      -0.03960000
C       -1.59550000      -1.92090000      -0.00950000
N       -0.62320000      -2.80670000      -0.16700000
N       -1.33250000      -3.99500000      -0.12380000
C       -2.63040000      -3.73330000       0.06820000
O       -3.53260000      -4.71640000       0.15840000
N       -2.85940000      -2.44200000       0.14860000
H        0.97180000       1.87360000       0.04720000
H       -0.42810000       1.76240000      -1.03980000
H       -0.66530000       1.96560000       0.70500000
H        0.58370000      -0.50780000      -0.64520000
H        0.38840000      -0.31190000       1.08940000
H       -2.12430000      -0.05070000       0.43010000
H       -0.86520000      -4.87940000      -0.21460000
H       -4.39090000      -4.29200000       0.28250000
