21
Properties=species:S:1:pos:R:3 gdb_60071=T pbc="F F F"
C       -0.12270000       1.62580000       0.22660000
C        0.01600000       0.10660000       0.05640000
C        0.77320000      -0.51380000       1.23790000
C       -1.34500000      -0.59450000      -0.11990000
C       -2.13820000      -0.17800000      -1.35290000
C       -3.62800000      -0.31180000      -1.35270000
N       -3.01250000       1.01650000      -1.32980000
C       -1.44250000      -0.37070000      -2.61220000
N       -0.86950000      -0.56080000      -3.59810000
H        0.86030000       2.09160000       0.34680000
H       -0.60560000       2.09260000      -0.63650000
H       -0.71070000       1.86890000       1.12120000
H        0.60010000      -0.07970000      -0.85460000
H        0.22800000      -0.36510000       2.17800000
H        0.91640000      -1.59090000       1.10200000
H        1.76070000      -0.05640000       1.35290000
H       -1.18460000      -1.67880000      -0.16570000
H       -1.97550000      -0.41000000       0.76090000
H       -4.14670000      -0.56050000      -2.27280000
H       -4.07830000      -0.70650000      -0.44560000
H       -3.02000000       1.39750000      -0.38660000
