20
Properties=species:S:1:pos:R:3 gdb_31954=T pbc="F F F"
C       -0.25100000       1.55840000      -0.23000000
C        0.06510000       0.06110000      -0.06420000
C        0.87500000      -0.50760000      -1.17490000
C        2.10750000      -1.06550000      -1.26700000
C        2.30740000      -1.44440000      -2.63950000
C        1.17050000      -1.06770000      -3.29230000
N        0.79320000      -1.07490000      -4.62470000
C       -0.59840000      -1.37850000      -4.95110000
O        0.29020000      -0.50110000      -2.42910000
H        0.66950000       2.14890000      -0.26500000
H       -0.79890000       1.73690000      -1.15940000
H       -0.86240000       1.92220000       0.60180000
H        0.61840000      -0.10440000       0.86620000
H       -0.87790000      -0.49490000       0.03260000
H        2.79800000      -1.20710000      -0.44940000
H        3.16750000      -1.92990000      -3.07200000
H        1.45200000      -1.59970000      -5.18220000
H       -0.91550000      -2.38500000      -4.63740000
H       -1.24960000      -0.64980000      -4.46520000
H       -0.73170000      -1.28790000      -6.03170000
