15
Properties=species:S:1:pos:R:3 gdb_2789=T pbc="F F F"
O       -0.23770000       1.54160000      -0.02540000
C       -0.01820000       0.16850000      -0.27130000
C       -1.29320000      -0.63840000      -0.01990000
C       -1.25550000      -2.19660000       0.09540000
C       -2.01240000      -2.12550000       1.46120000
C       -1.75690000      -0.61450000       1.44050000
O       -1.74040000       0.25110000       2.27490000
H       -0.58450000       1.61110000       0.87420000
H        0.30190000       0.07610000      -1.31460000
H        0.79520000      -0.23390000       0.35630000
H       -2.08710000      -0.28570000      -0.68780000
H       -1.75400000      -2.74810000      -0.70170000
H       -0.23700000      -2.57710000       0.20640000
H       -3.07980000      -2.35340000       1.37300000
H       -1.60960000      -2.67490000       2.31550000
