15
Properties=species:S:1:pos:R:3 gdb_123696=T pbc="F F F"
C        0.00960000       1.49670000       0.08920000
C        1.30190000       0.73870000       0.02560000
O        1.98930000       0.42620000       1.25240000
C        1.13660000      -0.40250000       1.89200000
C       -0.01840000      -0.75590000       1.24300000
C       -0.65360000      -1.62810000       2.15090000
N        0.06210000      -1.78490000       3.26710000
N        1.17450000      -1.00010000       3.09190000
C       -0.02640000      -0.02330000      -0.04890000
H       -0.30340000       1.92640000       1.03420000
H       -0.22920000       2.08860000      -0.78830000
H        1.99840000       0.86480000      -0.79270000
H       -1.59130000      -2.15600000       2.05660000
H        1.87490000      -0.96360000       3.81130000
H       -0.37910000      -0.47310000      -0.96960000
