21
Properties=species:S:1:pos:R:3 gdb_104442=T pbc="F F F"
C       -0.07870000       1.56120000      -0.00660000
C       -0.01230000       0.02600000      -0.01170000
C       -1.42110000      -0.58830000      -0.00390000
O       -2.18420000      -0.27160000      -1.15890000
C        0.76810000      -0.47380000      -1.24620000
O        2.13730000      -0.09440000      -1.17510000
C        2.73460000      -0.59270000      -0.01000000
O        2.13380000      -0.10070000       1.15990000
C        0.76360000      -0.47330000       1.22480000
H        0.92610000       1.98650000       0.01260000
H       -0.58000000       1.94000000      -0.90400000
H       -0.62160000       1.92900000       0.87190000
H       -1.35030000      -1.68220000       0.00580000
H       -1.94820000      -0.28890000       0.91660000
H       -2.41780000       0.66040000      -1.11520000
H        0.68980000      -1.57260000      -1.31350000
H        0.36700000      -0.04980000      -2.16830000
H        2.69160000      -1.70000000      -0.01190000
H        3.77180000      -0.25260000      -0.00520000
H        0.36860000      -0.03970000       2.14870000
H        0.68050000      -1.57170000       1.29930000
