17
Properties=species:S:1:pos:R:3 gdb_81311=T pbc="F F F"
O        0.08630000       1.43390000       0.19570000
C       -0.00800000       0.05560000      -0.00300000
C       -1.37500000      -0.67470000      -0.12740000
C       -2.31590000       0.12890000      -1.00650000
O       -1.62420000       0.69190000      -2.14690000
C       -0.37360000       0.22000000      -2.45970000
N        0.22050000       0.53240000      -3.52890000
C        0.26110000      -0.61840000      -1.38480000
N       -0.73360000      -1.69450000      -1.02430000
H       -0.35660000       1.88420000      -0.53340000
H        0.60740000      -0.41670000       0.76720000
H       -1.88820000      -1.04960000       0.76140000
H       -3.12280000      -0.50880000      -1.38120000
H       -2.74770000       0.97280000      -0.45910000
H       -0.37950000       1.12110000      -4.11160000
H        1.25970000      -0.93320000      -1.68150000
H       -0.25020000      -2.37810000      -0.44410000
