16
Properties=species:S:1:pos:R:3 gdb_17650=T pbc="F F F"
N       -0.16830000       0.84910000       0.05800000
H        0.19690000      -0.07230000       0.27440000
H        0.56420000       2.60620000      -0.19220000
H       -0.85590000       0.74140000      -0.68050000
C       -0.75850000       1.47530000       1.25200000
C        0.01400000       1.05440000       2.48640000
C       -0.61730000       1.11920000       3.82040000
N       -0.33590000      -0.18960000       3.19720000
C       -0.68420000       3.01330000       1.11790000
O        0.21680000       3.42810000       0.21860000
O       -1.35120000       3.75760000       1.78370000
H       -1.81820000       1.22890000       1.40210000
H        1.08700000       1.22110000       2.40800000
H       -0.01270000       1.35150000       4.69130000
H       -1.64400000       1.46860000       3.87300000
H       -1.19910000      -0.57400000       2.81770000
