20
Properties=species:S:1:pos:R:3 gdb_61468=T pbc="F F F"
N       -0.46730000       0.85680000      -0.11020000
H       -0.18180000      -0.72810000       0.65580000
H        0.38980000       1.25220000      -0.48700000
H       -1.19860000       0.99040000      -0.80000000
C       -0.81750000       1.48410000       1.17900000
C        0.16090000       0.97290000       2.25460000
C        0.13060000      -0.53770000       2.52150000
O       -0.05080000      -1.31410000       1.44410000
O        0.28260000      -0.99900000       3.62220000
C       -0.87440000       3.00910000       1.18380000
C        0.12400000       3.86610000       0.44770000
C       -1.31470000       3.81660000      -0.00830000
H       -1.82090000       1.11290000       1.42540000
H        1.18470000       1.24330000       1.96060000
H       -0.02950000       1.46560000       3.20990000
H       -1.19120000       3.39970000       2.14750000
H        0.48870000       4.76300000       0.93490000
H        0.86470000       3.38620000      -0.18510000
H       -1.52140000       3.29650000      -0.93810000
H       -1.94700000       4.68070000       0.16080000
