20
Properties=species:S:1:pos:R:3 gdb_64496=T pbc="F F F"
C        0.10220000       1.66850000       0.40920000
C        0.01280000       0.16850000       0.11990000
C       -1.37810000      -0.26360000       0.55730000
C       -2.57940000       0.13800000      -0.18920000
O       -2.12380000      -1.21340000      -0.20780000
C        0.64510000      -0.48410000      -1.14750000
C        2.00490000      -0.17700000      -0.48780000
N        1.17990000      -0.69130000       0.71110000
C        0.72320000      -1.77130000      -0.29320000
H        1.09870000       2.09100000       0.28780000
H       -0.57920000       2.22000000      -0.24590000
H       -0.20830000       1.86050000       1.44230000
H       -1.47540000      -0.39190000       1.63740000
H       -3.51600000       0.31340000       0.33800000
H       -2.47110000       0.67420000      -1.13140000
H        0.34510000      -0.36720000      -2.19500000
H        2.83680000      -0.84070000      -0.73550000
H        2.35480000       0.85050000      -0.40630000
H       -0.19220000      -2.29020000      -0.02460000
H        1.52100000      -2.47780000      -0.53550000
