20
Properties=species:S:1:pos:R:3 gdb_107231=T pbc="F F F"
C       -0.10380000       1.52750000       0.05360000
C       -0.04110000       0.02840000      -0.03120000
C       -0.75560000      -0.88550000       0.93270000
C        0.73580000      -0.99070000       0.77330000
N        1.25890000      -1.70490000      -0.45770000
C        0.13660000      -2.19340000      -1.29790000
C        0.44380000      -0.74850000      -1.29200000
C        1.15200000      -0.08690000      -2.45660000
O        2.10190000      -0.96400000      -3.02510000
H        0.80540000       2.00330000      -0.32770000
H       -0.95250000       1.92470000      -0.51660000
H       -0.23010000       1.84510000       1.09330000
H       -1.03930000      -0.38840000       1.85650000
H       -1.45970000      -1.65360000       0.63490000
H        1.42890000      -0.87300000       1.59730000
H        0.50300000      -2.74940000      -2.15480000
H       -0.75430000      -2.60780000      -0.84390000
H        0.44100000       0.17780000      -3.24830000
H        1.62680000       0.84730000      -2.11650000
H        2.56440000      -1.36060000      -2.27200000
