17
Properties=species:S:1:pos:R:3 gdb_48323=T pbc="F F F"
O       -0.18180000      -0.01120000      -0.35820000
C       -0.00200000       1.07910000       0.12300000
C        1.29930000       1.85660000       0.04090000
C        1.57770000       2.44350000       1.41280000
O        0.75450000       3.06660000       2.03720000
C        2.48730000       1.31410000      -0.81590000
C        1.64790000       1.61480000      -2.09810000
C        1.47150000       2.85960000      -1.18750000
C        3.00350000       2.78360000      -0.92660000
H       -0.79330000       1.60140000       0.69850000
H        2.58190000       2.23360000       1.84150000
H        3.07140000       0.41840000      -0.60610000
H        2.22860000       1.78890000      -3.00700000
H        0.78270000       0.98460000      -2.28790000
H        0.86290000       3.74760000      -1.35810000
H        3.39420000       3.26600000      -0.02860000
H        3.63790000       2.99820000      -1.78950000
