13
Properties=species:S:1:pos:R:3 gdb_129272=T pbc="F F F"
N       -0.20590000       1.22680000       0.29700000
C       -0.02360000       0.01060000       0.07180000
O        1.11910000      -0.66010000      -0.27360000
N        0.80880000      -2.03460000      -0.43490000
C       -0.44080000      -2.10920000      -0.16750000
O       -1.02860000      -0.92790000       0.13930000
C       -1.26560000      -3.33340000      -0.15760000
C       -0.62680000      -4.65410000      -0.16940000
O       -1.19020000      -4.12700000       1.03040000
H        0.65730000       1.75440000       0.19620000
H       -2.26880000      -3.20070000      -0.55760000
H       -1.16560000      -5.48690000      -0.61640000
H        0.45820000      -4.71650000      -0.18970000
