13
Properties=species:S:1:pos:R:3 gdb_28131=T pbc="F F F"
N        0.10210000       1.32980000       0.17370000
C       -0.07550000      -0.03570000       0.05700000
C       -1.20600000      -0.82210000       0.01240000
C       -0.66600000      -2.14280000       0.00540000
C        0.68510000      -2.05720000       0.03510000
O        1.09430000      -0.75700000       0.07020000
N        1.28940000      -3.27560000      -0.00080000
C        0.26090000      -4.07660000      -0.04550000
O       -0.97830000      -3.46480000      -0.04750000
H        0.95990000       1.65520000      -0.25360000
H       -0.69370000       1.86570000      -0.14230000
H       -2.22530000      -0.47640000      -0.00610000
H        0.25590000      -5.15300000      -0.07670000
