15
Properties=species:S:1:pos:R:3 gdb_67230=T pbc="F F F"
O        0.12550000       1.42640000       0.10870000
C        0.05520000       0.06860000       0.00170000
C        0.34100000      -0.80590000       1.27540000
C       -1.16880000      -0.87840000       1.57650000
C       -1.28830000      -0.89220000       0.04400000
C       -0.23940000      -1.94520000      -0.48110000
O        0.60510000      -2.08960000       0.67400000
C        0.43040000      -0.75720000      -1.20620000
O        0.75160000      -0.47360000      -2.32630000
H        0.07420000       1.79860000      -0.78150000
H        1.10610000      -0.54420000       2.00310000
H       -1.52430000      -1.73570000       2.15200000
H       -1.54990000       0.06050000       1.98380000
H       -2.18990000      -0.71360000      -0.53600000
H       -0.48850000      -2.89400000      -0.94570000
