20
Properties=species:S:1:pos:R:3 gdb_76508=T pbc="F F F"
C       -0.12930000       1.53070000       0.37940000
C        0.02960000       0.03340000       0.22760000
N        1.28070000      -0.60520000      -0.21780000
C        2.44620000       0.19830000      -0.55370000
C        0.87360000      -0.75210000       1.16450000
C        1.65620000      -0.29220000       2.42910000
C        1.34530000      -1.67580000       3.02990000
O       -0.07660000      -1.82950000       3.04690000
C        0.62270000      -2.10220000       1.82020000
H        0.71130000       1.99400000       0.90100000
H       -0.23580000       2.01880000      -0.59590000
H       -1.03420000       1.74530000       0.95740000
H       -0.85220000      -0.45760000      -0.18450000
H        2.61270000       1.07670000       0.08630000
H        3.33860000      -0.43370000      -0.49510000
H        2.35160000       0.54460000      -1.58770000
H        2.72190000      -0.14680000       2.22880000
H        1.26740000       0.56080000       2.99080000
H        1.92010000      -2.24710000       3.74890000
H        0.49010000      -3.07470000       1.36120000
