19
Properties=species:S:1:pos:R:3 gdb_22224=T pbc="F F F"
C       -0.23220000       1.93790000       0.26640000
C        0.07660000       0.46240000       0.03870000
O        0.98700000       0.07290000       1.08580000
C        1.72050000      -1.03870000       0.86410000
N        2.48370000      -1.47690000       1.76860000
C       -1.15810000      -0.41390000       0.06960000
C       -1.97490000      -0.50670000       1.32670000
N       -1.40270000      -1.03010000      -1.02380000
O       -2.57150000      -1.79580000      -0.94840000
H        0.69410000       2.51760000       0.24740000
H       -0.89820000       2.30600000      -0.51860000
H       -0.71200000       2.09280000       1.23640000
H        0.55680000       0.32740000      -0.93700000
H        1.57700000      -1.46760000      -0.13610000
H        2.97650000      -2.30220000       1.43310000
H       -2.84420000       0.15920000       1.27460000
H       -2.35590000      -1.52170000       1.45590000
H       -1.37340000      -0.22700000       2.19350000
H       -2.59730000      -2.21590000      -1.81480000
