23
Properties=species:S:1:pos:R:3 gdb_60403=T pbc="F F F"
C       -0.03790000       1.52520000      -0.32220000
C        0.02010000       0.05620000       0.09620000
O        0.59490000      -0.08690000       1.39580000
C       -1.34880000      -0.62950000       0.00960000
C       -1.30050000      -2.12110000       0.36710000
C       -2.67260000      -2.74710000       0.35520000
O       -3.28950000      -2.96260000      -0.92360000
C       -2.99240000      -4.10650000      -0.11350000
C       -1.99400000      -5.10140000      -0.64780000
H        0.94940000       1.98600000      -0.23110000
H       -0.37830000       1.63060000      -1.35730000
H       -0.73650000       2.08280000       0.31490000
H        0.72010000      -0.47360000      -0.56290000
H        0.05720000       0.42880000       2.00750000
H       -2.04660000      -0.10820000       0.68280000
H       -1.75330000      -0.51170000      -1.00270000
H       -0.64100000      -2.63980000      -0.33570000
H       -0.85920000      -2.23660000       1.36390000
H       -3.35840000      -2.31720000       1.09130000
H       -3.88320000      -4.56670000       0.32180000
H       -1.11470000      -4.61310000      -1.07170000
H       -1.66820000      -5.77910000       0.14900000
H       -2.45440000      -5.70870000      -1.43430000
