21
Properties=species:S:1:pos:R:3 gdb_114762=T pbc="F F F"
C        0.08010000       1.52250000       0.12370000
C        0.08110000      -0.00330000       0.01120000
C        0.63570000      -0.51250000      -1.32020000
O        1.98400000      -0.04090000      -1.40890000
C        2.73590000      -0.53860000      -2.47720000
C        3.82540000      -1.51710000      -2.13050000
C        2.56010000      -1.98520000      -2.83980000
C        1.48390000      -2.70280000      -2.11400000
C        0.56660000      -2.01920000      -1.43250000
H        1.09300000       1.91730000       0.01570000
H       -0.54180000       1.97470000      -0.65730000
H       -0.31430000       1.84430000       1.09230000
H        0.67870000      -0.44310000       0.81870000
H       -0.93880000      -0.39160000       0.12240000
H        0.04350000      -0.06350000      -2.13910000
H        2.91420000       0.18990000      -3.26650000
H        4.75030000      -1.49400000      -2.69680000
H        3.92550000      -1.76140000      -1.07930000
H        2.67810000      -2.25280000      -3.88650000
H        1.45000000      -3.78730000      -2.17520000
H       -0.25510000      -2.51850000      -0.92650000
