21
Properties=species:S:1:pos:R:3 gdb_104619=T pbc="F F F"
C        0.11030000       1.63540000       0.08210000
C        0.07510000       0.11580000       0.04660000
C        1.05140000      -0.63010000      -0.90450000
C        1.31640000      -1.68670000       0.22290000
C        2.78660000      -2.06230000       0.46280000
O        2.96550000      -2.84390000       1.62510000
C        0.68110000      -0.67380000       1.23880000
C        0.52570000      -2.90010000       0.07170000
C       -0.08550000      -3.93270000      -0.02930000
H        1.12700000       2.00100000       0.26720000
H       -0.23090000       2.06430000      -0.86680000
H       -0.53430000       2.02950000       0.87570000
H       -0.94780000      -0.22820000      -0.13900000
H        0.66010000      -1.00500000      -1.85170000
H        1.95720000      -0.04540000      -1.10040000
H        3.18100000      -2.56580000      -0.43480000
H        3.36780000      -1.14690000       0.61540000
H        2.40920000      -3.62620000       1.52540000
H        1.46530000      -0.10920000       1.75290000
H       -0.00470000      -1.08270000       1.98190000
H       -0.64660000      -4.82870000      -0.13210000
