16
Properties=species:S:1:pos:R:3 gdb_12983=T pbc="F F F"
C       -0.06970000       1.53310000      -0.00410000
C        0.05890000       0.03260000       0.03420000
C       -0.79120000      -0.82870000       0.95610000
C        0.69800000      -0.80100000       1.12220000
C        1.45360000      -1.90710000       0.40800000
O        1.06090000      -1.83880000      -0.97330000
C        0.40110000      -0.67210000      -1.24730000
O        0.16500000      -0.32000000      -2.36710000
H        0.87360000       2.00730000      -0.29290000
H       -0.82570000       1.82590000      -0.73840000
H       -0.36520000       1.92600000       0.97300000
H       -1.38530000      -0.28760000       1.68450000
H       -1.26280000      -1.72340000       0.56100000
H        1.14100000      -0.34910000       2.00130000
H        2.53820000      -1.76200000       0.46830000
H        1.21240000      -2.90970000       0.77500000
