21
Properties=species:S:1:pos:R:3 gdb_103617=T pbc="F F F"
C       -0.29740000       1.79420000      -0.43130000
O       -0.07360000       0.39380000      -0.51720000
C       -1.13400000      -0.43000000      -0.08880000
C       -2.41400000      -0.26240000      -0.91010000
C       -0.66920000      -1.91050000       0.06230000
C       -1.26390000      -1.98570000       1.50480000
C       -0.44840000      -2.58820000       2.64130000
C       -1.38000000      -0.45390000       1.44980000
O       -1.44380000       0.39880000       2.29100000
H        0.66060000       2.27030000      -0.65380000
H       -1.03570000       2.14150000      -1.16720000
H       -0.62330000       2.08950000       0.57170000
H       -2.19020000      -0.41240000      -1.97140000
H       -3.16710000      -0.99750000      -0.61010000
H       -2.85220000       0.73090000      -0.78020000
H       -1.06530000      -2.61400000      -0.67140000
H        0.42180000      -1.95750000       0.06680000
H       -2.27020000      -2.42350000       1.48580000
H        0.56020000      -2.16350000       2.66590000
H       -0.92170000      -2.38040000       3.60540000
H       -0.35760000      -3.67330000       2.53100000
