19
Properties=species:S:1:pos:R:3 gdb_69854=T pbc="F F F"
C       -0.07020000       1.47280000       0.06530000
C        0.04670000      -0.01830000      -0.01340000
O       -0.55080000      -0.80030000       1.04180000
C        0.86830000      -0.89870000       0.81390000
C        1.28360000      -1.94010000      -0.25390000
C       -0.03680000      -2.27210000      -0.97350000
C        0.16220000      -0.78870000      -1.37640000
C       -0.37210000      -0.17210000      -2.63770000
O        1.62180000      -1.05120000      -1.37740000
H        0.70680000       1.94970000      -0.54030000
H       -1.04430000       1.81570000      -0.30070000
H        0.03980000       1.80590000       1.10020000
H        1.51660000      -0.58300000       1.62420000
H        2.05800000      -2.66810000      -0.01730000
H        0.13840000      -2.92670000      -1.82720000
H       -0.91070000      -2.56090000      -0.39360000
H       -1.45940000      -0.05970000      -2.57320000
H        0.06350000       0.81750000      -2.80800000
H       -0.13870000      -0.80110000      -3.50060000
