19
Properties=species:S:1:pos:R:3 gdb_70670=T pbc="F F F"
O        0.44600000       1.16510000      -0.16600000
C        0.08190000      -0.16360000       0.01700000
C       -0.53000000      -0.93980000      -1.12530000
C       -1.35910000      -0.58180000       0.09540000
C       -1.48520000      -1.64620000       1.17880000
C       -0.04220000      -2.16920000       1.40190000
C        0.85470000      -0.95440000       1.06480000
C        2.27100000      -1.26930000       0.65100000
O        2.85180000      -0.68270000      -0.23220000
H        1.32820000       1.14030000      -0.56020000
H       -0.72210000      -0.35340000      -2.01650000
H       -0.25570000      -1.97280000      -1.31560000
H       -2.14890000       0.15090000      -0.02370000
H       -1.86310000      -1.18440000       2.09860000
H       -2.17430000      -2.45500000       0.91460000
H        0.11530000      -2.54130000       2.41700000
H        0.17370000      -3.00050000       0.72210000
H        0.94320000      -0.31400000       1.95790000
H        2.78260000      -2.07550000       1.22430000
