19
Properties=species:S:1:pos:R:3 gdb_121060=T pbc="F F F"
C        0.07890000       1.39340000      -0.77520000
O       -0.14210000       0.00360000      -0.85630000
C        0.86970000      -0.75390000      -0.23780000
C        0.49410000      -2.22720000      -0.38190000
C        0.53090000      -2.74320000      -1.83390000
C        1.93850000      -3.33540000      -1.94690000
C        2.32510000      -3.64790000      -0.50430000
O        3.22630000      -4.32170000      -0.10110000
O        1.45940000      -3.01330000       0.33940000
H        0.12030000       1.73760000       0.26950000
H        1.01750000       1.68590000      -1.27120000
H       -0.75630000       1.88600000      -1.27810000
H        1.85110000      -0.56370000      -0.70730000
H        0.96420000      -0.50370000       0.83060000
H       -0.47790000      -2.38930000       0.09040000
H       -0.22500000      -3.52040000      -1.97370000
H        0.32050000      -1.93860000      -2.53960000
H        2.00840000      -4.23890000      -2.55390000
H        2.66890000      -2.62230000      -2.34420000
