16
Properties=species:S:1:pos:R:3 gdb_30203=T pbc="F F F"
C       -0.65920000       1.54660000      -0.27230000
C        0.04150000       0.21670000      -0.08480000
C        0.99820000      -0.30160000      -1.23710000
C        2.07700000      -0.33580000      -0.17200000
C        3.19670000      -0.72350000       0.44580000
O        3.06920000      -0.38230000       1.79180000
C        1.79670000       0.15070000       2.03780000
O        1.38690000       0.45080000       3.12400000
N        1.25270000       0.24680000       0.77930000
H        0.04380000       2.31480000      -0.60730000
H       -1.45440000       1.44940000      -1.01860000
H       -1.11070000       1.87860000       0.66710000
H       -0.65830000      -0.55640000       0.24730000
H        0.72940000      -1.26390000      -1.67540000
H        1.15420000       0.42970000      -2.03400000
H        4.10610000      -1.21830000       0.15660000
