14
Properties=species:S:1:pos:R:3 gdb_48659=T pbc="F F F"
O       -0.65900000       0.74160000       0.58470000
C        0.26000000       0.92230000      -0.17350000
C        1.27110000       1.98380000       0.03660000
C        1.40230000       3.00590000       1.16630000
C        1.95280000       4.04210000       0.12790000
C        1.80560000       2.97160000      -0.96840000
O        2.55240000       1.82720000      -0.58310000
C        1.49780000       3.15280000      -2.35330000
N        1.24470000       3.34380000      -3.46540000
H        0.41900000       0.31960000      -1.09100000
H        0.43360000       3.28830000       1.57910000
H        2.07710000       2.70630000       1.96910000
H        1.28340000       4.89000000      -0.02190000
H        2.97650000       4.39330000       0.26540000
