25
Properties=species:S:1:pos:R:3 gdb_88947=T pbc="F F F"
C        0.22420000       1.58670000      -0.31810000
C       -0.00170000       0.11560000      -0.04190000
C        1.14990000      -0.85770000       0.00550000
C        0.37390000      -0.55750000       1.26510000
C        0.99970000       0.18570000       2.42690000
C        1.87440000      -0.67170000       3.37610000
C        2.39880000       0.20810000       4.52140000
C        1.11210000      -1.87460000       3.93830000
O        2.98180000      -1.23850000       2.66510000
H        1.17820000       1.94020000       0.08370000
H        0.23910000       1.77750000      -1.39710000
H       -0.56870000       2.20660000       0.11630000
H       -0.91480000      -0.26810000      -0.49110000
H        1.04680000      -1.83300000      -0.45750000
H        2.15120000      -0.44470000      -0.06630000
H       -0.32050000      -1.33460000       1.57270000
H        1.62780000       1.00460000       2.05270000
H        0.21150000       0.66370000       3.02480000
H        1.58180000       0.59340000       5.14010000
H        3.07480000      -0.36900000       5.15870000
H        2.95190000       1.07040000       4.12910000
H        0.83730000      -2.56410000       3.13710000
H        1.74250000      -2.41830000       4.64750000
H        0.20280000      -1.55490000       4.45630000
H        3.52530000      -0.51220000       2.34160000
