17
Properties=species:S:1:pos:R:3 gdb_12493=T pbc="F F F"
O       -0.03070000      -0.02000000      -0.42110000
C       -0.05050000       1.15330000      -0.09780000
C       -1.37960000       1.87520000       0.17290000
O       -1.46450000       2.55150000       1.40900000
C       -0.93590000       3.86240000       1.42770000
C        0.59190000       3.90720000       1.43430000
C        1.22860000       3.32940000       0.16630000
N        1.09800000       1.88380000       0.03540000
H       -1.59430000       2.56130000      -0.66500000
H       -2.14110000       1.09370000       0.17810000
H       -1.32240000       4.43750000       0.56800000
H       -1.32650000       4.32650000       2.33870000
H        0.90310000       4.95490000       1.53180000
H        0.96860000       3.36510000       2.30850000
H        0.81690000       3.84290000      -0.71640000
H        2.30070000       3.54200000       0.17460000
H        1.92670000       1.35750000      -0.19970000
