15
Properties=species:S:1:pos:R:3 gdb_14645=T pbc="F F F"
C       -0.04220000       1.45430000       0.01040000
C       -0.03890000      -0.00050000       0.00260000
C       -0.04200000      -1.20340000      -0.00390000
C       -0.01930000      -2.65540000      -0.01190000
O       -1.35320000      -3.15930000      -0.00180000
C       -1.37480000      -4.56440000      -0.00900000
C       -2.76600000      -5.02420000       0.00170000
N       -3.85020000      -5.42040000       0.00980000
H        0.97990000       1.84800000       0.00250000
H       -0.56000000       1.85450000      -0.86770000
H       -0.54260000       1.84500000       0.90280000
H        0.51290000      -3.02530000      -0.90480000
H        0.52980000      -3.03480000       0.86660000
H       -0.87660000      -4.97620000      -0.90280000
H       -0.85980000      -4.98560000       0.87070000
