15
Properties=species:S:1:pos:R:3 gdb_45395=T pbc="F F F"
O        0.00910000       0.04300000      -0.41750000
C       -0.03450000       1.18350000      -0.07570000
C       -1.13540000       2.10830000       0.47560000
C       -0.08790000       3.23660000       0.59150000
O        0.59110000       3.22230000       1.85580000
C        1.69240000       2.45460000       1.33310000
C        1.02500000       2.33150000      -0.07020000
C        1.78610000       2.59600000      -1.25240000
C        2.41510000       2.80840000      -2.25550000
H       -1.89040000       2.29880000      -0.29610000
H       -1.63050000       1.80360000       1.40000000
H       -0.34620000       4.23870000       0.24790000
H        2.61690000       3.04070000       1.30340000
H        1.86180000       1.51980000       1.87800000
H        2.97200000       2.99470000      -3.14040000
