17
Properties=species:S:1:pos:R:3 gdb_3433=T pbc="F F F"
C       -0.01650000       1.49180000       0.06330000
C       -0.01030000      -0.00360000       0.00520000
C        0.01710000      -0.77630000      -1.08700000
C       -0.01300000      -2.25470000      -0.76140000
C        0.05470000      -2.28290000       0.76590000
C        1.25930000      -1.67640000       1.43680000
C        0.00670000      -0.84220000       1.24640000
H        0.85930000       1.87300000       0.60380000
H       -0.02150000       1.93450000      -0.93640000
H       -0.89820000       1.86250000       0.60190000
H        0.07490000      -0.40510000      -2.10490000
H       -0.93500000      -2.72670000      -1.12870000
H        0.81690000      -2.80300000      -1.22690000
H       -0.47770000      -3.06200000       1.29840000
H        1.48680000      -2.02110000       2.44050000
H        2.12800000      -1.42650000       0.83520000
H       -0.55740000      -0.53100000       2.12000000
