23
Properties=species:S:1:pos:R:3 gdb_40217=T pbc="F F F"
C       -0.42490000       1.46750000       0.16070000
C        1.02500000       1.11900000      -0.09570000
C       -0.00240000       0.03020000      -0.04160000
C       -0.11080000      -0.95600000       1.11150000
C       -1.43870000      -1.68450000       0.81540000
C       -1.54960000      -1.72090000      -0.73660000
C       -0.46340000      -0.75860000      -1.24820000
C       -0.48870000      -0.19530000      -2.63910000
C        0.54130000      -1.23770000      -2.27180000
H       -0.70610000       1.78670000       1.15940000
H       -0.97390000       1.95660000      -0.63720000
H        1.44820000       1.38910000      -1.05880000
H        1.72710000       1.20120000       0.72800000
H        0.72820000      -1.66290000       1.07510000
H       -0.09410000      -0.47510000       2.09420000
H       -1.48060000      -2.68130000       1.26240000
H       -2.27100000      -1.11040000       1.23480000
H       -1.39340000      -2.73070000      -1.12880000
H       -2.54670000      -1.40640000      -1.06190000
H       -1.30660000      -0.48780000      -3.29000000
H       -0.14760000       0.82390000      -2.79650000
H        1.57230000      -0.91530000      -2.16770000
H        0.42260000      -2.23850000      -2.67520000
