15
Properties=species:S:1:pos:R:3 gdb_23160=T pbc="F F F"
O       -0.13640000       1.36840000       0.52610000
N       -0.02770000      -0.02450000       0.56190000
C       -1.01220000      -0.57500000      -0.00880000
C       -2.31510000      -0.14590000      -0.64160000
C       -2.82150000      -1.61140000      -0.44350000
O       -3.51120000      -2.25720000      -1.45800000
C       -1.32600000      -2.06480000      -0.10800000
C       -0.70670000      -2.72270000      -1.24760000
N       -0.28690000      -3.22300000      -2.20250000
H        0.65680000       1.65060000       0.99550000
H       -2.86670000       0.65660000      -0.14850000
H       -2.19960000       0.10770000      -1.70200000
H       -3.43020000      -1.70200000       0.45830000
H       -2.94380000      -2.32700000      -2.23650000
H       -1.18740000      -2.65820000       0.79830000
