13
Properties=species:S:1:pos:R:3 gdb_3495=T pbc="F F F"
C       -0.08310000      -1.28110000      -0.10180000
C       -0.04120000      -0.08050000      -0.04110000
C       -0.00080000       1.36310000       0.02270000
C        0.12420000       2.12100000       1.38700000
C        1.58610000       1.63980000       1.53370000
C        1.35470000       2.14390000       0.09060000
O        0.61150000       3.29790000       0.63790000
H       -0.12010000      -2.34110000      -0.15530000
H       -0.71760000       1.83990000      -0.64920000
H       -0.64420000       2.28100000       2.14300000
H        2.21880000       2.28270000       2.14550000
H        1.76560000       0.57460000       1.68530000
H        2.06650000       2.33130000      -0.71300000
