21
Properties=species:S:1:pos:R:3 gdb_38455=T pbc="F F F"
C        0.25800000       1.71080000      -0.07040000
C        1.72040000       1.25650000      -0.13840000
O        1.98510000       0.48230000       1.04110000
C        1.33720000      -0.15900000      -0.06150000
C       -0.16920000       0.19900000       0.01110000
C       -0.93040000      -0.31080000       1.24980000
C       -1.71840000      -1.57150000       0.78860000
C       -1.37680000      -1.75370000      -0.71030000
C       -0.97090000      -0.34660000      -1.17760000
H        0.00800000       2.34170000       0.78670000
H       -0.08920000       2.18860000      -0.99100000
H        2.56900000       1.73760000      -0.61050000
H        1.80850000      -1.04900000      -0.46600000
H       -0.23880000      -0.50870000       2.07250000
H       -1.62020000       0.46330000       1.60270000
H       -1.46300000      -2.45900000       1.37360000
H       -2.79410000      -1.41400000       0.91550000
H       -0.52780000      -2.43820000      -0.82470000
H       -2.20370000      -2.17530000      -1.28840000
H       -1.86230000       0.27490000      -1.33430000
H       -0.40340000      -0.34300000      -2.11470000
