19
Properties=species:S:1:pos:R:3 gdb_116663=T pbc="F F F"
C        0.07300000       0.90490000      -1.02770000
C       -0.39610000       0.35610000       0.32190000
N       -1.56980000      -0.50320000       0.35790000
C       -2.18440000      -0.78650000      -0.70880000
N       -3.32280000      -1.61550000      -0.70320000
C       -3.97720000      -1.90720000      -1.90560000
N       -3.57180000      -1.44200000      -3.01610000
C       -3.80070000      -2.14770000       0.50020000
N       -4.82440000      -2.89860000       0.53980000
H        0.96010000       1.52730000      -0.87800000
H        0.34250000       0.10350000      -1.72350000
H       -0.69220000       1.52580000      -1.50490000
H        0.42110000      -0.20750000       0.79180000
H       -0.59630000       1.19110000       1.00680000
H       -1.94320000      -0.45620000      -1.71770000
H       -4.83550000      -2.55740000      -1.73670000
H       -4.17520000      -1.76540000      -3.76930000
H       -3.18310000      -1.82710000       1.33910000
H       -5.01140000      -3.18170000       1.49930000
