18
Properties=species:S:1:pos:R:3 gdb_38355=T pbc="F F F"
C        0.00130000       1.65880000       0.24460000
C        1.54190000       1.52690000       0.07570000
C        1.39120000      -0.00990000       0.22620000
C       -0.14600000       0.12330000      -0.01890000
N       -0.64550000      -0.28740000      -1.31480000
C       -0.05150000      -0.15020000      -2.41710000
O        1.12700000       0.47030000      -2.74360000
C        1.36200000       1.81580000      -2.31350000
O        2.10990000       1.94990000      -1.15820000
H       -0.24610000       1.90790000       1.27980000
H       -0.55180000       2.33560000      -0.40760000
H        2.14960000       2.02550000       0.83300000
H        1.96040000      -0.62160000      -0.47390000
H        1.60150000      -0.33790000       1.24750000
H       -0.76490000      -0.38540000       0.72310000
H       -0.47740000      -0.61890000      -3.30580000
H        1.96610000       2.26380000      -3.10470000
H        0.39210000       2.32440000      -2.24520000
