17
Properties=species:S:1:pos:R:3 gdb_126935=T pbc="F F F"
C       -0.01990000       1.54580000       0.00690000
C       -0.05220000       0.02710000      -0.11920000
N       -1.37140000      -0.49370000       0.21180000
C       -1.56910000      -1.86300000       0.10730000
C       -0.69870000      -2.90880000       0.05070000
O       -1.36980000      -4.08770000       0.02120000
N       -2.73500000      -3.82770000       0.04200000
C       -2.83550000      -2.52590000       0.09550000
O       -4.01400000      -1.87690000       0.11980000
H        0.97980000       1.92810000      -0.21580000
H       -0.71820000       2.01470000      -0.69600000
H       -0.29500000       1.85730000       1.01850000
H        0.26600000      -0.27880000      -1.13110000
H        0.66670000      -0.41730000       0.58130000
H       -2.12910000       0.03580000      -0.19980000
H        0.37590000      -2.97960000       0.03310000
H       -4.71620000      -2.53970000       0.08410000
