16
Properties=species:S:1:pos:R:3 gdb_8943=T pbc="F F F"
O        0.07480000       1.35870000      -0.43720000
C        0.08300000      -0.00970000      -0.03320000
C       -1.35120000      -0.54250000       0.01030000
O       -2.01390000      -0.24080000      -1.20180000
C       -1.38420000      -2.07030000       0.19870000
O       -0.72960000      -2.43490000       1.38180000
C       -2.81580000      -2.57250000       0.21120000
O       -3.24340000      -3.19670000       1.15440000
H       -0.20300000       1.89150000       0.31560000
H        0.64660000      -0.54330000      -0.80600000
H        0.58240000      -0.15900000       0.92970000
H       -1.87250000      -0.08260000       0.86960000
H       -1.66930000       0.62070000      -1.47520000
H       -0.89380000      -2.51780000      -0.68440000
H       -1.38860000      -2.92970000       1.89680000
H       -3.43300000      -2.33460000      -0.67230000
