15
Properties=species:S:1:pos:R:3 gdb_30608=T pbc="F F F"
C       -0.00840000       1.37330000      -0.00490000
O        0.01420000      -0.05930000      -0.01940000
C        0.61960000      -0.60690000      -1.07680000
O        1.12820000       0.01780000      -1.98520000
C        0.61490000      -2.07630000      -1.04400000
N        0.11450000      -2.90770000      -0.14760000
C        0.39530000      -4.15670000      -0.62190000
C        1.07460000      -4.08230000      -1.82080000
N        1.20600000      -2.74920000      -2.07530000
H        1.00820000       1.77490000      -0.00020000
H       -0.53490000       1.75960000      -0.88140000
H       -0.53310000       1.64880000       0.90940000
H        0.09910000      -5.04480000      -0.08460000
H        1.45970000      -4.83620000      -2.48710000
H        1.64610000      -2.29420000      -2.85950000
