19
Properties=species:S:1:pos:R:3 gdb_47094=T pbc="F F F"
O       -0.07240000       0.10400000      -0.18060000
C       -0.03280000       1.28750000       0.03670000
C       -1.17570000       2.15930000       0.54760000
C       -0.82070000       3.56960000       0.05930000
C        0.73020000       3.63180000       0.06070000
C        1.36420000       4.00960000       1.42430000
O        1.73050000       2.78900000       2.05490000
C        2.20380000       1.94630000       1.01810000
C        1.21380000       2.16920000      -0.14490000
H       -2.14780000       1.78070000       0.22660000
H       -1.14140000       2.10640000       1.64450000
H       -1.19010000       3.70930000      -0.96270000
H       -1.26290000       4.36130000       0.67040000
H        1.08740000       4.30900000      -0.71770000
H        2.25530000       4.63790000       1.26650000
H        0.68360000       4.54170000       2.09510000
H        3.22360000       2.23150000       0.71220000
H        2.22020000       0.91720000       1.38460000
H        1.66960000       1.96010000      -1.11480000
