19
Properties=species:S:1:pos:R:3 gdb_69780=T pbc="F F F"
C        0.02030000       1.53910000       0.03160000
C       -0.04330000       0.03840000       0.12910000
C       -1.33570000      -0.70170000      -0.23870000
C       -1.32920000      -2.00730000       0.56680000
C       -2.62800000      -2.67400000       0.93300000
O       -0.25060000      -2.88730000       0.22350000
C       -0.09010000      -2.05080000       1.37140000
C        0.70450000      -0.78680000       1.10090000
O        1.14750000      -0.66310000      -0.25240000
H        0.99630000       1.89960000       0.36620000
H       -0.12420000       1.86620000      -1.00420000
H       -0.75810000       2.00780000       0.64280000
H       -2.20340000      -0.09550000       0.04530000
H       -1.39890000      -0.89220000      -1.31490000
H       -3.17200000      -2.98240000       0.03320000
H       -2.43940000      -3.56600000       1.53560000
H       -3.27440000      -1.99520000       1.49920000
H       -0.00760000      -2.55860000       2.32910000
H        1.36350000      -0.37740000       1.86240000
