13
Properties=species:S:1:pos:R:3 gdb_132646=T pbc="F F F"
N       -0.06430000       1.38150000       0.16070000
C       -0.03380000       0.01880000       0.04870000
N       -1.16830000      -0.66930000       0.07370000
C       -1.07080000      -1.98770000       0.01520000
F       -2.21780000      -2.66150000       0.04320000
C        0.12410000      -2.67120000      -0.07870000
N        1.27710000      -1.97420000      -0.11690000
C        1.20500000      -0.67070000      -0.05390000
O        2.33440000       0.08190000      -0.09490000
H        0.75530000       1.88400000      -0.13790000
H       -0.95590000       1.81950000      -0.00880000
H        0.16840000      -3.75200000      -0.12800000
H        3.07350000      -0.53560000      -0.17690000
