14
Properties=species:S:1:pos:R:3 gdb_130654=T pbc="F F F"
O        0.03060000      -0.01790000      -0.02060000
C        0.00540000       1.17940000      -0.01520000
C       -1.22890000       2.10580000       0.02560000
N       -0.70220000       3.47000000      -0.12730000
C        0.67540000       3.38710000      -0.04050000
C        1.81090000       4.15360000      -0.00580000
C        2.85780000       3.17800000       0.00210000
N        2.43520000       1.92490000      -0.02620000
N        1.07630000       2.07330000      -0.04310000
H       -1.91660000       1.83830000      -0.78160000
H       -1.74690000       1.95630000       0.97980000
H       -1.15480000       4.20220000       0.39880000
H        1.90140000       5.22620000       0.00310000
H        3.92160000       3.37310000       0.02310000
