19
Properties=species:S:1:pos:R:3 gdb_122410=T pbc="F F F"
O       -0.11440000       1.53330000       0.17130000
C        0.01540000       0.15120000      -0.11730000
C       -1.34690000      -0.49700000       0.09200000
C       -1.34230000      -1.99670000      -0.21930000
C       -2.68590000      -2.65250000       0.02520000
C       -2.75660000      -4.19080000       0.04500000
C       -3.13430000      -3.99390000       1.51370000
O       -3.41390000      -4.66640000       2.45230000
O       -3.06180000      -2.62530000       1.45340000
H        0.74860000       1.94550000       0.07230000
H        0.35010000      -0.01060000      -1.15600000
H        0.75910000      -0.32790000       0.54080000
H       -1.66060000      -0.33730000       1.12890000
H       -2.07790000       0.01810000      -0.54320000
H       -1.07060000      -2.16770000      -1.27000000
H       -0.58590000      -2.50870000       0.39010000
H       -3.47960000      -2.17120000      -0.55400000
H       -3.53660000      -4.65520000      -0.56030000
H       -1.81070000      -4.71390000      -0.10930000
