18
Properties=species:S:1:pos:R:3 gdb_55406=T pbc="F F F"
C       -0.32800000       1.32200000       0.18260000
C       -0.07690000      -0.16110000       0.05320000
O       -0.03140000      -0.91550000       0.99670000
C        0.11050000      -0.68400000      -1.38580000
C        0.67020000      -2.11080000      -1.43970000
C       -0.60320000      -2.96550000      -1.46660000
O       -1.60940000      -2.14080000      -2.09050000
C       -1.26380000      -0.82980000      -2.03400000
N       -1.97500000       0.13110000      -2.44430000
H        0.58690000       1.86700000      -0.08070000
H       -1.10020000       1.62970000      -0.52960000
H       -0.61310000       1.56840000       1.20590000
H        0.68980000       0.04620000      -1.95450000
H        1.25130000      -2.25480000      -2.35430000
H        1.29400000      -2.34340000      -0.57620000
H       -0.51380000      -3.87860000      -2.05850000
H       -0.93730000      -3.21840000      -0.45600000
H       -2.86190000      -0.20910000      -2.81910000
