19
Properties=species:S:1:pos:R:3 gdb_16837=T pbc="F F F"
C        0.05930000       1.56310000      -0.03360000
C        0.01860000       0.03510000       0.02270000
C        0.64720000      -0.66050000      -1.20880000
C        1.20370000      -2.02740000      -0.72330000
O        2.35040000      -2.46150000      -1.43080000
C        1.45090000      -1.81490000       0.76230000
N        2.25310000      -0.58520000       0.98480000
C        0.78460000      -0.56970000       1.19350000
H        1.09590000       1.91310000      -0.07040000
H       -0.45980000       1.94140000      -0.92030000
H       -0.41820000       2.00850000       0.84620000
H       -1.02580000      -0.29050000       0.12550000
H       -0.05840000      -0.77310000      -2.03550000
H        1.48790000      -0.06550000      -1.57840000
H        0.46020000      -2.82120000      -0.85780000
H        3.04940000      -1.83490000      -1.20550000
H        1.59800000      -2.66690000       1.41800000
H        2.71500000      -0.64940000       1.88820000
H        0.41120000      -0.44170000       2.20550000
