18
Properties=species:S:1:pos:R:3 gdb_67106=T pbc="F F F"
C       -0.12420000       1.50640000      -0.05820000
C        0.01450000       0.01680000      -0.06860000
C        0.77650000      -0.90650000      -1.04160000
C        2.22620000      -0.90950000      -0.44140000
O        2.01130000      -0.91880000       1.01140000
C        0.60590000      -0.93200000       0.99280000
C       -0.72440000      -0.95820000       1.74710000
N       -1.17160000      -0.93600000       0.26320000
C        0.02400000      -1.84590000      -0.09290000
H        0.85940000       1.98350000      -0.12630000
H       -0.73050000       1.84920000      -0.90300000
H       -0.60350000       1.85480000       0.86270000
H        0.68760000      -0.89530000      -2.12950000
H        2.79540000      -1.80220000      -0.72130000
H        2.80000000      -0.01680000      -0.71080000
H       -1.00430000      -1.87720000       2.26880000
H       -1.02640000      -0.07290000       2.31270000
H       -0.06690000      -2.93100000      -0.08200000
