17
Properties=species:S:1:pos:R:3 gdb_49115=T pbc="F F F"
O       -0.09370000       0.04760000       0.15800000
C        0.00070000       1.24870000       0.02090000
C        1.26570000       1.95860000      -0.14990000
C        1.44040000       3.28250000      -0.25210000
C        1.02130000       4.62790000       0.28120000
O        2.39340000       4.81200000       0.74540000
C        2.86180000       3.70540000      -0.11000000
C        3.55190000       2.45820000       0.46820000
C        2.64400000       1.29800000      -0.06360000
H       -0.90180000       1.89940000       0.01850000
H        0.75270000       5.37850000      -0.47300000
H        0.28940000       4.64160000       1.09480000
H        3.36610000       4.11820000      -0.99320000
H        4.60130000       2.35600000       0.18160000
H        3.49300000       2.50060000       1.56020000
H        2.61880000       0.43300000       0.60350000
H        2.98850000       0.93260000      -1.03860000
