16
Properties=species:S:1:pos:R:3 gdb_28808=T pbc="F F F"
C        0.06930000       1.37250000       0.36080000
C       -0.03090000      -0.06000000      -0.08330000
C       -1.23560000      -0.68820000      -0.21160000
C       -1.42810000      -2.06140000      -0.59340000
N       -0.62000000      -3.06130000      -0.46520000
C        0.63030000      -2.91570000       0.13320000
N        1.12090000      -3.67190000       1.03020000
C        1.47760000      -1.83670000      -0.45640000
N        1.17540000      -0.59690000      -0.48630000
H        0.49980000       1.98920000      -0.43450000
H       -0.90370000       1.77640000       0.64640000
H        0.74640000       1.44790000       1.21930000
H       -2.13510000      -0.08850000      -0.10510000
H       -2.39900000      -2.30110000      -1.03350000
H        0.42410000      -4.36790000       1.31220000
H        2.42840000      -2.14190000      -0.89580000
