21
Properties=species:S:1:pos:R:3 gdb_104609=T pbc="F F F"
C       -0.22650000       1.58200000      -0.12540000
C       -0.07120000       0.06150000      -0.09270000
O        1.05740000      -0.31610000       0.69640000
C       -1.36520000      -0.63700000       0.36480000
C       -1.39460000      -2.13540000       0.11910000
C       -0.51230000      -3.02100000       0.99510000
O       -0.53490000      -4.36840000       0.57040000
C       -2.56350000      -2.74420000      -0.53050000
O       -1.35140000      -2.51410000      -1.27190000
H        0.71680000       2.04850000      -0.42140000
H       -1.00360000       1.88910000      -0.83230000
H       -0.50450000       1.96880000       0.86380000
H        0.16740000      -0.29890000      -1.09940000
H        0.94030000       0.06150000       1.57570000
H       -1.52630000      -0.43640000       1.43390000
H       -2.20700000      -0.18240000      -0.16880000
H        0.50520000      -2.60990000       0.99960000
H       -0.88650000      -3.00100000       2.02580000
H       -0.37180000      -4.34010000      -0.38150000
H       -2.78980000      -3.79030000      -0.34290000
H       -3.40470000      -2.11700000      -0.82100000
