15
Properties=species:S:1:pos:R:3 gdb_26892=T pbc="F F F"
N        0.09690000       1.33630000       0.02520000
C       -0.00690000      -0.00460000       0.00480000
C       -1.20520000      -0.68850000       0.02210000
N       -2.42100000       0.06840000       0.01520000
C       -1.08520000      -2.09570000       0.03220000
N        0.03620000      -2.76690000       0.02060000
C        1.21640000      -2.06350000       0.00090000
N        2.40040000      -2.51210000      -0.01500000
O        1.15980000      -0.63970000      -0.00510000
H        0.98410000       1.76130000      -0.18440000
H       -0.76010000       1.84800000      -0.11320000
H       -2.94010000      -0.03330000       0.88210000
H       -3.03840000      -0.21620000      -0.73840000
H       -2.00310000      -2.68810000       0.04440000
H        2.34620000      -3.52910000      -0.00990000
