15
Properties=species:S:1:pos:R:3 gdb_20407=T pbc="F F F"
C        0.11750000       1.43290000      -0.32200000
C        1.45680000       1.99990000       0.26620000
C        2.14980000       0.73790000       0.67380000
N        3.36150000       0.35840000       1.06310000
N        3.18020000      -0.94930000       1.28460000
N        1.95600000      -1.44560000       1.06750000
C        1.29070000      -0.36470000       0.67650000
C       -0.10340000      -0.00270000       0.27110000
H       -0.73000000       2.09360000      -0.12650000
H        0.21880000       1.35120000      -1.40830000
H        2.00710000       2.59670000      -0.46610000
H        1.27160000       2.64670000       1.13250000
H        3.94210000      -1.54230000       1.57010000
H       -0.77380000       0.02130000       1.13890000
H       -0.54920000      -0.68450000      -0.45810000
