15
Properties=species:S:1:pos:R:3 gdb_127349=T pbc="F F F"
C       -0.01530000       1.47610000      -0.02250000
N       -0.00830000       0.03080000       0.02220000
C       -0.03940000      -0.82670000      -1.05480000
N       -0.02310000      -2.11100000      -0.74410000
C        0.02100000      -2.07540000       0.62010000
C        0.03210000      -0.78790000       1.13770000
C        0.07800000      -0.93240000       2.53880000
N        0.09370000      -2.23000000       2.85410000
N        0.05880000      -2.91890000       1.68190000
H        0.88800000       1.88590000       0.44100000
H       -0.04990000       1.79950000      -1.06480000
H       -0.89020000       1.87920000       0.49800000
H       -0.07410000      -0.43840000      -2.06340000
H        0.10030000      -0.19540000       3.32650000
H        0.06390000      -3.92320000       1.70450000
