20
Properties=species:S:1:pos:R:3 gdb_95697=T pbc="F F F"
C        0.14420000       1.62300000      -0.00370000
C       -0.03860000       0.10140000      -0.04830000
C        0.62770000      -0.49760000      -1.29250000
C        0.51810000      -2.01440000      -1.39230000
O        1.33450000      -2.72180000      -0.44420000
C        0.84310000      -2.98920000       0.79760000
O        1.00920000      -4.06600000       1.31220000
N        0.16180000      -1.95220000       1.39970000
C        0.50360000      -0.53640000       1.23750000
H        1.20370000       1.89120000       0.08250000
H       -0.24100000       2.09160000      -0.91460000
H       -0.38220000       2.06500000       0.84870000
H       -1.11300000      -0.12450000      -0.09120000
H        0.17310000      -0.06700000      -2.19370000
H        1.69090000      -0.22370000      -1.31470000
H       -0.52420000      -2.33970000      -1.29000000
H        0.88360000      -2.35240000      -2.36550000
H       -0.12170000      -2.21970000       2.33060000
H        1.59260000      -0.38890000       1.28660000
H        0.07430000      -0.01750000       2.09940000
