19
Properties=species:S:1:pos:R:3 gdb_120523=T pbc="F F F"
C        0.62350000       1.40410000       0.05180000
O        0.17270000       0.07340000      -0.06010000
C        0.56680000      -0.54980000      -1.26100000
C        0.03030000      -1.97370000      -1.23800000
C        0.71710000      -2.91980000      -2.25610000
C        1.54110000      -3.44940000      -1.04220000
N        0.55810000      -2.81590000      -0.13800000
C        1.68020000      -4.89970000      -0.89400000
N        1.80100000      -6.04490000      -0.79610000
H        1.72270000       1.46620000       0.01960000
H        0.22020000       2.03870000      -0.75230000
H        0.27480000       1.78700000       1.01350000
H        0.16870000      -0.01030000      -2.13820000
H        1.66860000      -0.54920000      -1.35060000
H       -1.06380000      -1.94470000      -1.25870000
H        0.04630000      -3.67340000      -2.66690000
H        1.29180000      -2.45930000      -3.06060000
H        2.54810000      -3.01160000      -1.01310000
H        0.93640000      -2.30500000       0.65280000
