25
Properties=species:S:1:pos:R:3 gdb_116191=T pbc="F F F"
C       -0.08830000       1.71320000      -0.31930000
C       -0.24620000       0.18780000      -0.30490000
C        0.83100000      -0.53680000      -1.11700000
C        2.25670000      -0.41740000      -0.53410000
O        2.93880000      -1.63760000      -0.82530000
C        2.11580000      -2.43110000      -1.66770000
C        0.66360000      -2.07480000      -1.30410000
C        0.26720000      -2.78900000      -0.00000000
C       -0.31970000      -2.42600000      -2.42360000
H        0.86440000       2.02380000       0.12270000
H       -0.12100000       2.10440000      -1.34240000
H       -0.88830000       2.19810000       0.24840000
H       -0.22720000      -0.16760000       0.73230000
H       -1.23540000      -0.07270000      -0.70260000
H        0.83830000      -0.09880000      -2.12520000
H        2.80830000       0.42920000      -0.96340000
H        2.23840000      -0.28260000       0.55650000
H        2.31160000      -2.20860000      -2.73070000
H        2.36430000      -3.48260000      -1.48900000
H        0.98330000      -2.58630000       0.80170000
H       -0.72610000      -2.48460000       0.34320000
H        0.24270000      -3.87310000      -0.15550000
H       -0.35600000      -3.50820000      -2.59260000
H       -1.33640000      -2.10230000      -2.17530000
H       -0.03670000      -1.94830000      -3.36780000
