20
Properties=species:S:1:pos:R:3 gdb_111347=T pbc="F F F"
O        0.49780000       0.45560000       0.90560000
C       -0.07840000       0.30880000      -0.38740000
C       -1.42010000      -0.40960000      -0.33480000
C       -2.07990000      -0.87600000      -1.63630000
C       -1.35930000      -2.00400000      -2.26220000
N       -2.25250000      -2.30080000      -1.12450000
C       -1.48720000      -1.88470000       0.08580000
C       -0.45960000      -2.74420000       0.75430000
C       -1.79120000      -2.45640000       1.42610000
H       -0.09330000       1.00410000       1.43160000
H       -0.19100000       1.28260000      -0.89060000
H        0.64710000      -0.27210000      -0.96390000
H       -2.12600000       0.18770000       0.25630000
H       -2.89230000      -0.36130000      -2.13900000
H       -1.74520000      -2.37060000      -3.20870000
H       -0.28730000      -2.12520000      -2.13020000
H       -0.30210000      -3.74120000       0.35580000
H        0.42350000      -2.25590000       1.15010000
H       -1.80170000      -1.78960000       2.28250000
H       -2.52080000      -3.25840000       1.46030000
