24
Properties=species:S:1:pos:R:3 gdb_122523=T pbc="F F F"
C       -0.09570000       1.65420000      -0.28050000
C       -0.02980000       0.17920000       0.12490000
C       -1.37090000      -0.54520000      -0.02840000
C       -1.30110000      -2.02090000       0.36630000
N       -2.62640000      -2.63290000       0.27470000
C       -3.02620000      -3.23240000      -0.99600000
C       -2.75490000      -4.08610000       0.19390000
C       -1.58300000      -5.04820000       0.23340000
O       -0.70830000      -4.84100000      -0.86750000
H        0.87370000       2.14770000      -0.15770000
H       -0.39450000       1.76310000      -1.32910000
H       -0.82660000       2.19850000       0.32770000
H        0.73230000      -0.33260000      -0.47790000
H        0.30770000       0.10170000       1.16720000
H       -2.13770000      -0.05210000       0.58180000
H       -1.71160000      -0.46950000      -1.07000000
H       -0.55110000      -2.54050000      -0.24790000
H       -0.97600000      -2.10120000       1.41260000
H       -4.04680000      -3.03880000      -1.31690000
H       -2.28920000      -3.27540000      -1.79420000
H       -3.60320000      -4.46720000       0.76250000
H       -1.04600000      -4.93030000       1.18850000
H       -1.99200000      -6.07110000       0.21810000
H        0.08740000      -5.36030000      -0.71800000
