16
Properties=species:S:1:pos:R:3 gdb_71879=T pbc="F F F"
O        0.12530000       1.39950000       0.04510000
C        0.03520000       0.00390000       0.01670000
C        0.12070000      -0.66180000      -1.43790000
C       -1.32360000      -1.27690000      -1.28520000
O       -1.34220000      -2.63990000      -0.66630000
C       -0.86160000      -1.98290000       0.45140000
N        0.24270000      -2.14880000       1.04820000
C        0.75680000      -0.75230000       1.18170000
C       -1.37580000      -0.60030000       0.08950000
H        1.05180000       1.64670000      -0.05040000
H        0.10440000       0.13850000      -2.18150000
H        0.92860000      -1.36220000      -1.65470000
H       -2.04810000      -1.21580000      -2.09430000
H        1.84610000      -0.78680000       1.06660000
H        0.53150000      -0.27530000       2.14490000
H       -2.24350000      -0.15930000       0.57340000
