24
Properties=species:S:1:pos:R:3 gdb_100124=T pbc="F F F"
C        0.79830000       1.57690000       0.10770000
O        0.46940000       0.20830000       0.15570000
C        0.20650000      -0.45970000      -1.08830000
C       -0.94030000       0.20370000      -1.86220000
C        1.47680000      -0.54060000      -1.94620000
C       -0.22610000      -1.85870000      -0.60210000
N       -0.51540000      -2.77350000      -1.70040000
C        0.50130000      -3.77050000      -2.02560000
C       -0.75220000      -4.16290000      -1.32780000
H        1.71280000       1.77700000      -0.46850000
H       -0.01170000       2.19390000      -0.30590000
H        0.97250000       1.88860000       1.14120000
H       -0.63690000       1.15170000      -2.31590000
H       -1.27260000      -0.46740000      -2.65760000
H       -1.78670000       0.39340000      -1.19430000
H        2.29460000      -0.99570000      -1.37860000
H        1.29260000      -1.14200000      -2.83980000
H        1.79940000       0.45030000      -2.27840000
H        0.55440000      -2.24430000       0.07570000
H       -1.13830000      -1.73630000      -0.00800000
H        0.63730000      -3.98490000      -3.08190000
H        1.41790000      -3.77180000      -1.43780000
H       -0.67040000      -4.42840000      -0.27480000
H       -1.55110000      -4.66800000      -1.86360000
