17
Properties=species:S:1:pos:R:3 gdb_55977=T pbc="F F F"
C       -0.03930000       1.50380000       0.05380000
C       -0.35970000       0.03380000      -0.14890000
O       -1.35780000      -0.50150000       0.29920000
N        0.55820000      -0.67690000      -0.87290000
C        0.43580000      -2.10510000      -0.98850000
C       -0.56510000      -2.69990000      -2.00520000
O        0.54980000      -3.35470000      -2.70630000
C        1.47160000      -2.74830000      -1.88970000
N        2.72350000      -2.69930000      -1.93010000
H        0.39980000       1.63960000       1.04760000
H        0.65990000       1.89610000      -0.68920000
H       -0.96840000       2.07470000       0.01980000
H        1.43190000      -0.26390000      -1.15880000
H        0.34890000      -2.57560000      -0.00440000
H       -1.27490000      -3.43350000      -1.62210000
H       -1.05570000      -1.97020000      -2.65130000
H        3.09900000      -3.22570000      -2.72060000
