19
Properties=species:S:1:pos:R:3 gdb_68149=T pbc="F F F"
C       -0.01120000       1.52770000       0.01060000
C        0.03210000       0.01970000       0.04300000
C        1.04960000      -0.83470000      -0.78570000
C        0.57010000      -1.92900000       0.20840000
C        0.51950000      -0.80550000       1.28130000
O       -0.80750000      -2.11940000      -0.14220000
C       -1.26080000      -0.75330000      -0.27770000
C        1.27500000      -3.23490000       0.40760000
O        2.43990000      -3.31460000       0.70770000
H        0.96530000       1.95680000       0.25510000
H       -0.29880000       1.89360000      -0.98170000
H       -0.73840000       1.91780000       0.73200000
H        0.84390000      -1.01230000      -1.84430000
H        2.08790000      -0.54370000      -0.62370000
H        1.50960000      -0.51190000       1.63120000
H       -0.17130000      -0.95650000       2.11460000
H       -2.07140000      -0.55320000       0.43340000
H       -1.62790000      -0.57750000      -1.29600000
H        0.63810000      -4.13330000       0.25660000
