18
Properties=species:S:1:pos:R:3 gdb_97286=T pbc="F F F"
C        0.21560000       1.37160000      -0.04720000
N       -0.01070000      -0.05700000      -0.00770000
C        0.65340000      -0.77760000      -0.80890000
N        0.54290000      -2.16240000      -0.86900000
C        1.30020000      -2.89700000      -1.88770000
C        2.74350000      -2.70000000      -1.78630000
C        3.93050000      -2.52750000      -1.71860000
C       -0.29100000      -2.85560000      -0.00640000
N       -0.43440000      -4.11880000      -0.08260000
H        0.95400000       1.68300000      -0.80390000
H       -0.72820000       1.89050000      -0.25230000
H        0.56170000       1.71940000       0.93330000
H        1.38370000      -0.38560000      -1.52800000
H        1.04350000      -3.95020000      -1.74630000
H        0.95450000      -2.60780000      -2.88850000
H        4.98130000      -2.38810000      -1.65200000
H       -0.77480000      -2.18230000       0.70190000
H       -1.07620000      -4.44310000       0.63700000
