15
Properties=species:S:1:pos:R:3 gdb_129871=T pbc="F F F"
N        0.20820000       1.35560000      -0.16430000
C        0.00750000      -0.02220000      -0.08950000
C       -1.12620000      -0.80620000       0.01380000
C       -0.63430000      -2.12380000       0.13930000
N        0.68940000      -2.17880000       0.11120000
N        1.06930000      -0.87480000      -0.01430000
C        2.47080000      -0.53670000      -0.01110000
C        2.90650000       0.08500000      -1.27180000
N        3.21100000       0.61720000      -2.25100000
H        0.78720000       1.64180000      -0.94740000
H       -0.66650000       1.86190000      -0.18980000
H       -2.15040000      -0.47190000      -0.01550000
H       -1.20060000      -3.03840000       0.24090000
H        2.69950000       0.15620000       0.80770000
H        3.01740000      -1.46700000       0.15630000
