18
Properties=species:S:1:pos:R:3 gdb_75295=T pbc="F F F"
C       -0.00350000       1.49470000       0.06200000
C       -0.03730000       0.00100000      -0.00840000
C       -0.00930000      -0.77150000      -1.09970000
C       -0.03680000      -2.25150000      -0.79890000
C        0.05760000      -2.30930000       0.73980000
N        1.41030000      -2.34570000       1.31090000
C        1.41140000      -1.06060000       1.79850000
O        2.23150000      -0.40140000       2.37770000
C       -0.03040000      -0.83310000       1.24790000
H        0.86510000       1.83130000       0.64060000
H        0.04520000       1.94380000      -0.93330000
H       -0.89180000       1.88770000       0.57260000
H        0.03590000      -0.38860000      -2.11430000
H       -0.95990000      -2.72490000      -1.15850000
H        0.79180000      -2.79610000      -1.27070000
H       -0.61820000      -3.03590000       1.19720000
H        2.15690000      -3.02040000       1.22330000
H       -0.77870000      -0.56670000       1.99800000
