18
Properties=species:S:1:pos:R:3 gdb_98254=T pbc="F F F"
C        0.11660000       1.20030000       0.56070000
O       -0.08630000      -0.07170000      -0.06420000
C       -1.19330000      -0.73010000       0.33460000
O       -1.96170000      -0.26610000       1.15990000
N       -1.29800000      -1.93740000      -0.31620000
C       -0.28230000      -2.29590000      -1.31860000
C       -2.39310000      -2.83580000      -0.13680000
N       -3.18090000      -2.59740000       0.96010000
N       -2.50400000      -3.80260000      -0.96820000
H        1.04070000       1.58880000       0.13260000
H       -0.71670000       1.87400000       0.34760000
H        0.21310000       1.08950000       1.64330000
H        0.71180000      -2.25450000      -0.87100000
H       -0.51110000      -3.30130000      -1.65940000
H       -0.31430000      -1.60680000      -2.16620000
H       -3.12810000      -1.67020000       1.36570000
H       -4.08140000      -3.04630000       0.94450000
H       -3.29160000      -4.39720000      -0.72150000
