16
Properties=species:S:1:pos:R:3 gdb_28250=T pbc="F F F"
O        0.22160000       1.30390000       0.19800000
C        0.07940000      -0.03210000       0.00820000
C       -0.06220000      -0.79560000      -1.13780000
C       -0.04840000      -2.13310000      -0.65610000
C        0.11390000      -2.15270000       0.69450000
C       -0.21330000      -3.50940000       1.23100000
C       -0.12180000      -4.29210000      -0.12110000
O       -0.31750000      -3.35210000      -1.21040000
N        0.13010000      -0.82710000       1.12190000
H        0.24520000       1.73090000      -0.66350000
H       -0.15990000      -0.43330000      -2.14820000
H        0.49160000      -3.92710000       1.95870000
H       -1.21820000      -3.56950000       1.67640000
H        0.87820000      -4.72960000      -0.22760000
H       -0.87030000      -5.08000000      -0.22440000
H        0.43430000      -0.48280000       2.01670000
