18
Properties=species:S:1:pos:R:3 gdb_76126=T pbc="F F F"
C       -0.14980000       1.55880000       0.10320000
C       -0.01010000       0.04980000      -0.01140000
C        1.12780000      -0.54950000      -0.95010000
C        1.98520000       0.37440000      -1.67460000
N        2.65750000       1.11410000      -2.25560000
C        1.72500000      -1.22530000       0.30170000
O        1.99990000      -0.19900000       1.25140000
C        0.65460000      -0.70000000       1.16620000
C        0.01080000      -1.22350000       2.40750000
H        0.79340000       2.00860000       0.42170000
H       -0.43290000       2.00230000      -0.85600000
H       -0.92310000       1.81760000       0.83420000
H       -0.96300000      -0.41610000      -0.28030000
H        0.71180000      -1.28060000      -1.64820000
H        2.31860000      -2.13120000       0.34530000
H       -0.31440000      -0.39970000       3.05230000
H       -0.86880000      -1.82750000       2.16320000
H        0.71550000      -1.83880000       2.97260000
