23
Properties=species:S:1:pos:R:3 gdb_108638=T pbc="F F F"
C       -0.31510000       1.53490000      -0.12210000
C        0.05040000       0.04410000       0.00390000
C        0.79170000      -0.49030000      -1.18750000
C        2.06640000      -0.90950000      -1.25760000
C        3.09880000      -0.95240000      -0.17360000
C        2.42310000      -1.33360000      -2.67040000
C        1.04730000      -1.51600000      -3.34830000
O        0.60430000      -2.86610000      -3.27310000
C        0.12260000      -0.57080000      -2.54950000
H        0.58450000       2.15100000      -0.21940000
H       -0.94240000       1.71970000      -0.99970000
H       -0.86680000       1.87580000       0.75940000
H        0.63510000      -0.10700000       0.91720000
H       -0.87750000      -0.53110000       0.13460000
H        3.49780000      -1.96740000      -0.04890000
H        3.95670000      -0.31530000      -0.42610000
H        2.71240000      -0.62090000       0.79320000
H        3.02170000      -0.55780000      -3.17060000
H        3.00520000      -2.26140000      -2.72010000
H        1.06700000      -1.28630000      -4.41640000
H        0.57430000      -3.10000000      -2.33800000
H       -0.89980000      -0.96600000      -2.51750000
H        0.06400000       0.42100000      -3.02000000
