17
Properties=species:S:1:pos:R:3 gdb_73339=T pbc="F F F"
C       -0.04760000       1.51330000      -0.00490000
C       -0.02190000       0.00160000       0.05460000
C       -1.38440000      -0.70960000       0.02540000
O       -1.11360000      -2.07010000       0.37950000
C        0.16220000      -2.09600000       0.96190000
C        1.38640000      -1.70350000       0.11700000
C        0.72920000      -0.76380000       1.19360000
C        0.95880000      -0.71910000      -0.91340000
O        1.36540000      -0.42550000      -2.00430000
H        0.95990000       1.92940000       0.08350000
H       -0.45630000       1.84670000      -0.96350000
H       -0.66600000       1.93260000       0.79590000
H       -2.07640000      -0.25870000       0.75260000
H       -1.84990000      -0.69330000      -0.96490000
H        0.30590000      -2.92300000       1.64670000
H        2.31140000      -2.26650000       0.15490000
H        1.17800000      -0.34830000       2.08470000
