19
Properties=species:S:1:pos:R:3 gdb_40917=T pbc="F F F"
C       -0.08530000       1.58460000       0.04500000
C        1.43940000       1.37470000      -0.08260000
C        1.84430000       0.79980000       1.29080000
C        0.71930000      -0.26820000       1.39890000
C        1.05640000      -1.74800000       1.65950000
O        0.07600000      -1.82750000       2.71710000
C       -0.16960000      -0.40950000       2.65110000
C        0.02370000       0.04490000       0.05990000
O        1.16520000       0.15440000      -0.84700000
H       -0.48400000       2.10630000       0.91950000
H       -0.52970000       1.95170000      -0.88020000
H        2.10540000       2.07570000      -0.58480000
H        2.84110000       0.35270000       1.26230000
H        1.81570000       1.54150000       2.09490000
H        0.84660000      -2.44710000       0.84070000
H        2.07380000      -1.92970000       2.03200000
H        0.20040000       0.11490000       3.54340000
H       -1.23570000      -0.17870000       2.52260000
H       -0.76460000      -0.62630000      -0.28280000
