15
Properties=species:S:1:pos:R:3 gdb_28259=T pbc="F F F"
O       -0.09370000       1.23390000       0.08980000
C        0.05840000      -0.08630000       0.03540000
N        1.17130000      -0.75250000      -0.09870000
C        0.71150000      -2.05790000      -0.02800000
C       -0.61530000      -2.10300000       0.17490000
C       -1.18270000      -3.45730000      -0.06310000
C        0.16900000      -4.25840000       0.03550000
N        1.26930000      -3.30500000      -0.32100000
O       -1.07980000      -0.78990000       0.16780000
H        0.78820000       1.61640000      -0.00410000
H       -1.90930000      -3.82230000       0.66940000
H       -1.63550000      -3.56090000      -1.06000000
H        0.28910000      -4.61130000       1.06790000
H        0.18740000      -5.12340000      -0.63080000
H        2.14110000      -3.51440000       0.15170000
