14
Properties=species:S:1:pos:R:3 gdb_123691=T pbc="F F F"
C       -0.06460000       1.44640000       0.01090000
C        1.41800000       1.84160000      -0.02670000
O        2.16480000       1.41830000       1.10830000
C        2.25530000       0.62100000      -0.09300000
C        1.29250000      -0.50310000      -0.07570000
N        1.26670000      -1.82160000      -0.06440000
C       -0.07460000      -2.06800000       0.03680000
N       -0.86250000      -0.99510000       0.09160000
N        0.04310000      -0.00470000       0.00150000
H       -0.56480000       1.80240000       0.91570000
H       -0.60630000       1.81030000      -0.86770000
H        1.70730000       2.79080000      -0.46680000
H        3.22910000       0.56030000      -0.56290000
H       -0.48460000      -3.06630000       0.07100000
