17
Properties=species:S:1:pos:R:3 gdb_84642=T pbc="F F F"
C        0.05640000       1.47010000      -0.00810000
N        0.07540000       0.01120000      -0.00070000
C        0.05980000      -0.65760000      -1.22800000
C        0.00180000      -1.98590000      -1.36720000
C        0.05440000      -2.84650000      -0.17130000
N        1.28760000      -2.73120000       0.64360000
C        0.02880000      -2.14590000       1.15240000
C       -0.03900000      -0.64930000       1.21370000
O       -0.21260000      -0.06360000       2.26700000
H        0.94770000       1.86010000      -0.50960000
H       -0.83420000       1.84560000      -0.52400000
H        0.03940000       1.80830000       1.02610000
H        0.07840000       0.00730000      -2.08390000
H       -0.04120000      -2.42480000      -2.35560000
H       -0.41340000      -3.82540000      -0.23150000
H        1.44860000      -3.60570000       1.13850000
H       -0.44770000      -2.61150000       2.00890000
