19
Properties=species:S:1:pos:R:3 gdb_67661=T pbc="F F F"
O       -0.08110000       1.39170000       0.03550000
C        0.01780000       0.01150000       0.04110000
C       -0.16060000      -0.80620000      -1.23120000
C        0.65830000      -2.07010000      -1.44370000
C        0.85920000      -2.60040000      -0.01580000
C        1.88370000      -1.70920000       0.74740000
C        0.70320000      -0.80650000       1.16190000
C       -0.31570000      -1.94120000       0.83120000
C       -1.12230000      -0.98450000      -0.07640000
H        0.67750000       1.74970000      -0.43910000
H       -0.50910000      -0.22620000      -2.08010000
H        0.08560000      -2.77730000      -2.05690000
H        1.61580000      -1.89620000      -1.94830000
H        1.00090000      -3.68090000       0.03630000
H        2.30670000      -2.22330000       1.61570000
H        2.70090000      -1.27390000       0.16180000
H        0.69610000      -0.29320000       2.12500000
H       -0.80600000      -2.52620000       1.60550000
H       -2.19370000      -0.84160000      -0.12830000
