15
Properties=species:S:1:pos:R:3 gdb_28310=T pbc="F F F"
O        0.07770000       1.31890000      -0.04860000
C        0.06510000      -0.03220000      -0.06440000
C        0.01610000      -0.83290000      -1.18910000
N        0.02350000      -2.11450000      -0.67260000
C       -0.00490000      -3.49680000      -1.10900000
C        0.03800000      -4.23270000       0.21920000
C        0.08390000      -3.35480000       1.23760000
C        0.07510000      -2.01290000       0.68400000
N        0.10180000      -0.75490000       1.09520000
H        0.11480000       1.57270000       0.88170000
H       -0.02090000      -0.60540000      -2.23900000
H       -0.91460000      -3.72280000      -1.67880000
H        0.85580000      -3.73840000      -1.74460000
H        0.03070000      -5.31100000       0.28220000
H        0.12120000      -3.57800000       2.29360000
