19
Properties=species:S:1:pos:R:3 gdb_105418=T pbc="F F F"
O       -0.12590000       1.69430000       0.23300000
C        0.00690000       0.29900000       0.06590000
C       -1.34490000      -0.42910000      -0.01220000
C       -2.31420000       0.00420000       1.10940000
C       -1.70480000      -0.02770000       2.49320000
O       -0.90600000       0.79190000       2.88840000
C       -1.97740000      -0.40940000      -1.42660000
O       -1.58730000      -1.77760000      -1.66330000
C       -1.17460000      -1.94280000      -0.29450000
H       -0.29890000       1.83450000       1.17500000
H        0.54870000       0.12980000      -0.87160000
H        0.61070000      -0.14450000       0.87130000
H       -2.60280000       1.04180000       0.90720000
H       -3.21390000      -0.61860000       1.08180000
H       -2.01640000      -0.86030000       3.15910000
H       -3.06940000      -0.28950000      -1.43820000
H       -1.53160000       0.28640000      -2.14610000
H       -0.15390000      -2.33880000      -0.21530000
H       -1.85460000      -2.60060000       0.26540000
