19
Properties=species:S:1:pos:R:3 gdb_80792=T pbc="F F F"
C       -0.15710000       1.55840000      -0.03480000
C        0.03590000       0.05010000      -0.01480000
C        1.21900000      -0.65810000      -0.75500000
C        2.15860000      -0.16550000       0.37990000
C        0.87310000      -0.65730000       1.12090000
C        0.60630000      -0.64930000       2.52780000
C        0.36630000      -0.64460000       3.70730000
C        0.96350000      -1.90410000       0.15130000
O       -0.10460000      -2.77350000      -0.04380000
H        0.77010000       2.12180000       0.09110000
H       -0.60580000       1.86830000      -0.98480000
H       -0.84010000       1.86070000       0.76620000
H       -0.94410000      -0.41390000      -0.18260000
H        1.42350000      -0.65320000      -1.82560000
H        3.06430000      -0.75140000       0.55680000
H        2.36890000       0.90080000       0.42890000
H        0.15950000      -0.64570000       4.74870000
H        1.83670000      -2.53690000       0.32540000
H       -0.91170000      -2.27270000      -0.19980000
