15
Properties=species:S:1:pos:R:3 gdb_133242=T pbc="F F F"
C       -0.03130000       1.40960000      -0.01930000
N       -0.00680000      -0.04760000       0.00640000
N       -0.03800000      -0.65530000      -1.17630000
C       -0.01830000      -1.95610000      -1.21840000
C        0.03570000      -2.73250000      -0.02410000
F        0.05280000      -4.05630000      -0.15070000
C        0.06790000      -2.13480000       1.18380000
C        0.04710000      -0.68640000       1.26540000
N        0.07100000       0.06570000       2.30780000
H        0.86080000       1.80530000       0.47270000
H       -0.07190000       1.71470000      -1.06310000
H       -0.90030000       1.77670000       0.53280000
H       -0.04460000      -2.42400000      -2.19440000
H        0.10900000      -2.71200000       2.09900000
H        0.10950000      -0.50330000       3.15100000
