15
Properties=species:S:1:pos:R:3 gdb_24409=T pbc="F F F"
C       -0.00920000       1.48770000       0.13010000
O        1.24100000       2.03880000      -0.33920000
C        2.25020000       1.23990000      -0.77910000
N        2.29880000      -0.02670000      -0.86040000
C        1.13410000      -0.67810000      -0.42970000
C        0.03700000       0.00260000       0.03930000
N       -0.92030000      -0.91430000       0.37470000
C       -0.43870000      -2.18300000       0.12150000
C        0.83700000      -2.06960000      -0.37970000
H       -0.15480000       1.85310000       1.15840000
H       -0.80680000       1.93330000      -0.48400000
H        3.08820000       1.86160000      -1.08160000
H       -1.83150000      -0.70970000       0.74680000
H       -1.04660000      -3.05030000       0.32070000
H        1.48610000      -2.87790000      -0.67710000
