16
Properties=species:S:1:pos:R:3 gdb_18940=T pbc="F F F"
C       -0.02860000       1.57990000       0.00910000
C        1.50780000       1.64140000       0.04180000
O        1.71720000       1.03630000       1.32950000
C        1.25520000      -0.27540000       0.96300000
C        2.38060000      -0.64660000      -0.01750000
C        1.91040000       0.45680000      -0.98040000
O        0.63480000      -0.10300000      -1.33800000
C        0.03050000       0.04380000      -0.04130000
H       -0.44140000       2.02850000       0.91340000
H       -0.51910000       1.96590000      -0.88530000
H        2.02780000       2.59350000      -0.03690000
H        1.05990000      -0.88570000       1.84180000
H        3.35270000      -0.50650000       0.45670000
H        2.31170000      -1.62140000      -0.50170000
H        2.49290000       0.70920000      -1.86350000
H       -0.87670000      -0.55050000       0.04170000
