17
Properties=species:S:1:pos:R:3 gdb_107262=T pbc="F F F"
O        0.13420000       1.39250000       0.13500000
C       -0.01750000      -0.00040000      -0.07340000
C       -1.46130000      -0.39910000      -0.03720000
O       -1.92270000      -1.61930000      -0.62620000
C       -2.55190000      -0.37350000      -1.00350000
C       -3.57880000       0.05230000       0.09320000
C       -3.60840000      -0.94030000       1.24360000
C       -2.46160000       0.01540000       1.11080000
O       -2.11570000       0.99000000       2.04140000
H       -0.37330000       1.61650000       0.92630000
H        0.40150000      -0.23690000      -1.05640000
H        0.54560000      -0.58740000       0.67250000
H       -2.57490000      -0.12740000      -2.05780000
H       -4.34550000       0.80050000      -0.05200000
H       -4.31580000      -0.66930000       2.02200000
H       -3.48170000      -2.00140000       1.06710000
H       -1.86850000       0.55020000       2.86320000
