20
Properties=species:S:1:pos:R:3 gdb_47842=T pbc="F F F"
O       -0.01410000      -0.16180000      -0.17790000
C       -0.00230000       1.05300000      -0.09520000
C       -1.34500000       1.79170000      -0.05590000
C       -1.47050000       3.32090000      -0.08620000
C       -1.27120000       4.00070000       1.27400000
C        0.06910000       3.62500000       1.93750000
C        1.23670000       3.86050000       1.02850000
C        1.69230000       2.99470000       0.12090000
N        1.22360000       1.69840000      -0.14770000
H       -1.86500000       1.37190000      -0.92410000
H       -1.87830000       1.38140000       0.81050000
H       -0.77820000       3.74040000      -0.82250000
H       -2.47700000       3.56090000      -0.44760000
H       -1.32590000       5.08810000       1.14340000
H       -2.09190000       3.72540000       1.94870000
H        0.19210000       4.19570000       2.86390000
H        0.04140000       2.56580000       2.22430000
H        1.72390000       4.83060000       1.06340000
H        2.55840000       3.25120000      -0.48360000
H        1.94320000       1.01730000      -0.35590000
