16
Properties=species:S:1:pos:R:3 gdb_133732=T pbc="F F F"
C       -0.13390000       1.48220000      -0.31670000
N       -0.12330000       0.03480000      -0.27230000
C       -1.27010000      -0.66070000      -0.00930000
N       -2.39510000      -0.07900000       0.09490000
C       -3.64040000      -0.79010000       0.30010000
C       -1.04320000      -2.17980000       0.10230000
F       -1.63930000      -2.83660000      -0.90020000
F        0.26410000      -2.50360000       0.06840000
F       -1.53630000      -2.65600000       1.25130000
H        0.86150000       1.83250000      -0.59680000
H       -0.85970000       1.82590000      -1.05850000
H       -0.41680000       1.92270000       0.64780000
H        0.74970000      -0.44010000      -0.12820000
H       -4.02990000      -0.55640000       1.29880000
H       -4.37910000      -0.41580000      -0.41770000
H       -3.59660000      -1.88000000       0.20060000
