19
Properties=species:S:1:pos:R:3 gdb_58134=T pbc="F F F"
C        0.18320000       1.54420000      -0.03300000
C        0.10650000       0.01300000       0.04890000
C        0.91060000      -0.53620000       1.23550000
C       -1.34890000      -0.53960000       0.05460000
O       -1.35270000      -1.97060000       0.03240000
C       -2.16270000      -0.21140000       1.33150000
O       -1.96270000       0.70800000       2.07500000
C       -2.14050000      -0.02570000      -1.06910000
C       -2.81190000       0.35260000      -1.99280000
H        1.22860000       1.85390000      -0.13130000
H       -0.36330000       1.92800000      -0.89860000
H       -0.22860000       2.00490000       0.86680000
H        0.54250000      -0.39580000      -0.87400000
H        0.56740000      -0.10180000       2.17850000
H        0.82290000      -1.62320000       1.30070000
H        1.96850000      -0.28310000       1.11640000
H       -1.19610000      -2.25150000      -0.87550000
H       -2.98320000      -0.94310000       1.48620000
H       -3.39850000       0.69610000      -2.80960000
