19
Properties=species:S:1:pos:R:3 gdb_47095=T pbc="F F F"
O       -0.06880000       0.03560000       0.24450000
C       -0.09360000       1.22390000       0.05420000
C       -1.35180000       2.07280000      -0.15940000
C       -0.84260000       3.47530000      -0.52680000
C        0.56090000       3.55080000       0.08560000
O        0.45030000       3.79340000       1.48550000
C        1.61890000       3.26300000       2.10340000
C        2.02650000       2.01080000       1.28440000
C        1.14890000       2.13410000       0.02160000
H       -2.00510000       1.61270000      -0.90460000
H       -1.90170000       2.07800000       0.78810000
H       -0.76420000       3.58900000      -1.61330000
H       -1.47700000       4.28190000      -0.15330000
H        1.19470000       4.31370000      -0.39000000
H        2.42640000       4.01080000       2.09310000
H        1.37010000       3.04430000       3.14500000
H        3.09160000       2.02220000       1.04320000
H        1.81530000       1.07490000       1.80740000
H        1.70050000       1.92540000      -0.90070000
