18
Properties=species:S:1:pos:R:3 gdb_69252=T pbc="F F F"
C       -0.02590000       1.47000000      -0.11320000
C       -0.02990000      -0.02990000       0.02690000
C       -0.80350000      -0.73490000       1.09420000
C        0.72670000      -0.73610000       1.13170000
C        1.47480000      -1.98220000       0.81740000
N        2.11340000      -2.62060000       1.70300000
O        1.40350000      -2.40900000      -0.48610000
C        1.17150000      -1.37780000      -1.44380000
O       -0.02570000      -0.70770000      -1.21700000
H        0.87560000       1.81440000      -0.63060000
H       -0.89650000       1.79710000      -0.69050000
H       -0.06220000       1.95170000       0.86800000
H       -1.30730000      -0.14990000       1.85510000
H       -1.29830000      -1.65500000       0.80740000
H        1.18580000      -0.13830000       1.90920000
H        2.56570000      -3.43670000       1.28530000
H        2.02760000      -0.68560000      -1.43290000
H        1.09440000      -1.87490000      -2.41140000
