14
Properties=species:S:1:pos:R:3 gdb_123680=T pbc="F F F"
C       -0.05370000       1.55080000      -0.01140000
C        1.45380000       1.88210000      -0.02440000
O        2.18120000       1.43340000       1.11790000
C        2.26230000       0.63700000      -0.08240000
C        1.23860000      -0.43040000      -0.08070000
C       -0.03100000       0.04380000      -0.00270000
C       -0.80180000      -1.14050000       0.07620000
N       -0.04570000      -2.21910000       0.02220000
O        1.28310000      -1.75880000      -0.06930000
H       -0.53730000       1.98780000       0.86870000
H       -0.54530000       1.96790000      -0.89770000
H        1.79820000       2.81970000      -0.45250000
H        3.24080000       0.54670000      -0.53950000
H       -1.87170000      -1.27570000       0.15310000
