21
Properties=species:S:1:pos:R:3 gdb_100959=T pbc="F F F"
C       -0.01650000       1.54870000       0.25140000
C       -0.05520000       0.03440000       0.00880000
C       -1.52080000      -0.43610000      -0.10410000
O       -2.30670000      -0.07880000       1.02310000
C        0.75480000      -0.46780000      -1.19340000
O        0.55230000      -1.83600000      -1.48410000
C        1.09090000       0.40710000      -2.39100000
C        2.17940000      -0.08510000      -1.45490000
O        2.83390000       0.78930000      -0.58490000
H        1.00130000       1.90490000       0.40400000
H       -0.45620000       2.09250000      -0.59260000
H       -0.62080000       1.78320000       1.13050000
H        0.37110000      -0.46880000       0.89080000
H       -2.00110000       0.05180000      -0.96190000
H       -1.55480000      -1.52100000      -0.26870000
H       -1.96190000      -0.56050000       1.78210000
H       -0.25650000      -1.91520000      -2.00080000
H        1.03100000      -0.03630000      -3.37930000
H        0.83410000       1.45840000      -2.33560000
H        2.79070000      -0.90800000      -1.82280000
H        3.40560000       1.35810000      -1.11100000
