16
Properties=species:S:1:pos:R:3 gdb_125217=T pbc="F F F"
C        0.01160000       1.52830000      -0.03020000
C       -0.03260000       0.02840000      -0.01390000
C       -1.16850000      -0.69680000      -0.10220000
C       -1.17110000      -2.15220000      -0.08250000
N       -2.26710000      -2.82180000      -0.16750000
N        0.10830000      -2.68770000       0.03540000
N        1.28160000      -2.00600000       0.12750000
C        1.20400000      -0.71960000       0.10320000
O        2.34600000       0.00440000       0.19200000
H        0.62380000       1.89120000      -0.86240000
H       -0.99280000       1.94670000      -0.12240000
H        0.47240000       1.91450000       0.88510000
H       -2.14130000      -0.22800000      -0.19300000
H       -2.09520000      -3.82840000      -0.13860000
H        0.22200000      -3.68870000       0.05880000
H        3.07430000      -0.62760000       0.26300000
