17
Properties=species:S:1:pos:R:3 gdb_124994=T pbc="F F F"
C       -0.17650000       1.60190000       0.16860000
C        0.01960000       0.12790000       0.01980000
C        0.07110000      -0.65700000      -1.09330000
C        0.00520000      -0.37720000      -2.56340000
N        1.24970000      -0.61800000      -3.30610000
O        0.26370000      -1.95010000      -0.75080000
N        0.35000000      -2.05150000       0.64190000
C        0.20060000      -0.82350000       1.06880000
O        0.22150000      -0.51090000       2.37530000
H        0.66050000       2.06270000       0.70430000
H       -0.26270000       2.09210000      -0.80440000
H       -1.08370000       1.82830000       0.73940000
H       -0.77880000      -0.99810000      -3.01170000
H       -0.29540000       0.66470000      -2.70940000
H        1.99820000      -0.06420000      -2.89760000
H        1.52550000      -1.58820000      -3.18100000
H        0.35600000      -1.32950000       2.87140000
