20
Properties=species:S:1:pos:R:3 gdb_58409=T pbc="F F F"
C        0.05790000       1.28460000      -0.38380000
C       -0.06750000      -0.16140000       0.11720000
C        0.74820000      -0.40630000       1.39350000
N       -1.48170000      -0.56720000       0.25690000
C       -2.09600000      -1.31630000      -0.82600000
C       -1.64980000      -2.77010000      -0.83830000
O       -1.41240000      -3.39750000      -1.83610000
C       -2.28100000      -0.10090000       1.26150000
O       -3.46980000      -0.32650000       1.37030000
H        1.10500000       1.53230000      -0.58350000
H       -0.50920000       1.43160000      -1.30760000
H       -0.32040000       1.99030000       0.36280000
H        0.33780000      -0.82310000      -0.65590000
H        0.47100000       0.27860000       2.20000000
H        0.61590000      -1.43050000       1.75260000
H        1.81040000      -0.24950000       1.18390000
H       -3.17820000      -1.29560000      -0.64770000
H       -1.88900000      -0.86800000      -1.80350000
H       -1.56330000      -3.22010000       0.17740000
H       -1.72790000       0.51450000       1.99160000
