14
Properties=species:S:1:pos:R:3 gdb_34714=T pbc="F F F"
N        0.08750000      -1.19100000      -0.04160000
C        0.07550000      -0.03700000       0.01800000
C        0.01340000       1.42340000       0.06990000
C       -0.27110000       2.15130000       1.36970000
C        1.02570000       2.33570000       2.19880000
N        2.14850000       1.44520000       1.96930000
C        2.29170000       1.42970000       0.70600000
N        1.34220000       2.21730000      -0.06780000
C        0.78450000       3.15800000       0.98470000
H       -0.64550000       1.77060000      -0.72910000
H       -1.24430000       2.29200000       1.82090000
H        0.89280000       2.72910000       3.19780000
H        3.01010000       0.81280000       0.17860000
H        0.78070000       4.23080000       0.84520000
