14
Properties=species:S:1:pos:R:3 gdb_52031=T pbc="F F F"
O       -0.32410000       0.31570000       0.66480000
C        0.02720000       1.10120000      -0.17170000
C        1.25960000       1.97850000      -0.01850000
O        1.47540000       2.63990000      -1.25430000
C        2.58310000       3.50070000      -1.28500000
C        2.72980000       3.96970000      -2.75270000
O        3.74260000       4.42380000      -3.19510000
C        2.41000000       4.66960000      -0.40010000
N        2.24440000       5.57670000       0.29630000
H       -0.52320000       1.25890000      -1.12440000
H        1.08470000       2.69790000       0.79570000
H        2.12040000       1.35410000       0.26220000
H        3.51620000       2.98980000      -1.00260000
H        1.80060000       3.82540000      -3.34000000
