17
Properties=species:S:1:pos:R:3 gdb_41250=T pbc="F F F"
C       -0.09410000       1.57750000       0.00130000
C        1.44800000       1.49730000      -0.02260000
C        1.28870000       0.04590000       0.81080000
O        1.79850000      -1.08630000       0.05460000
C        1.00440000      -0.47850000      -0.99570000
C        0.70990000      -0.59220000      -2.49090000
O        0.94920000       0.85230000      -2.57920000
C        1.73820000       0.79160000      -1.33870000
C       -0.03940000       0.04770000       0.05400000
H       -0.47890000       1.99050000       0.93750000
H       -0.57240000       2.05780000      -0.85310000
H        2.08230000       2.30930000       0.32660000
H        1.46090000       0.00020000       1.88380000
H        1.44940000      -1.15960000      -3.06970000
H       -0.30570000      -0.85940000      -2.79600000
H        2.79930000       0.66710000      -1.57130000
H       -0.86570000      -0.61600000       0.30500000
