21
Properties=species:S:1:pos:R:3 gdb_92246=T pbc="F F F"
C       -0.06840000       1.54650000      -0.10450000
C        0.06750000       0.04290000       0.01350000
O        1.15570000      -0.49700000      -0.79520000
C        1.63240000      -1.32430000       0.29190000
C        2.88410000      -0.74490000       0.99410000
C        1.94360000      -0.02520000       1.99870000
C        1.49670000      -0.86780000       3.23770000
C        0.11720000      -1.16100000       2.56410000
C        0.67340000      -0.58700000       1.26430000
H        0.85710000       2.04800000       0.19210000
H       -0.29520000       1.82810000      -1.13760000
H       -0.88410000       1.90730000       0.53200000
H       -0.87930000      -0.44460000      -0.27110000
H        1.58690000      -2.39180000       0.05030000
H        3.56270000      -1.47890000       1.44110000
H        3.45480000      -0.08700000       0.33410000
H        2.09820000       1.03800000       2.18950000
H        2.11070000      -1.75830000       3.39890000
H        1.44410000      -0.31590000       4.17840000
H       -0.23450000      -2.19710000       2.54720000
H       -0.67890000      -0.53720000       2.98410000
