18
Properties=species:S:1:pos:R:3 gdb_57062=T pbc="F F F"
C       -0.30520000       1.51320000      -0.11660000
C        0.01020000       0.02370000      -0.07810000
C        1.34920000      -0.43920000      -0.69980000
O        1.79750000      -0.99390000       0.55970000
C        0.58020000      -0.61650000       1.21870000
C        0.84160000       0.29630000       2.42740000
O       -0.36880000       0.73150000       3.02020000
C        1.70740000      -0.38900000       3.40690000
N        2.33600000      -0.94660000       4.19990000
H        0.55860000       2.12220000       0.16950000
H       -0.58850000       1.81070000      -1.13140000
H       -1.12960000       1.76200000       0.55650000
H       -0.84510000      -0.54310000      -0.45320000
H        1.28080000      -1.20710000      -1.47830000
H        2.01040000       0.36470000      -1.04630000
H        0.02170000      -1.49690000       1.57050000
H        1.35890000       1.20070000       2.09510000
H       -0.79250000      -0.02750000       3.43810000
