13
Properties=species:S:1:pos:R:3 gdb_20771=T pbc="F F F"
C       -0.03200000       1.48180000       0.03730000
C       -0.00930000      -0.01480000       0.00100000
N       -0.04870000      -0.56530000      -1.16590000
O       -0.02850000      -1.96050000      -1.22520000
C        0.03010000      -2.68730000      -0.10380000
C        0.07350000      -2.17850000       1.14200000
C        0.05630000      -0.74290000       1.30420000
O        0.09120000      -0.13520000       2.36300000
H        0.86050000       1.85150000       0.55130000
H       -0.08080000       1.89160000      -0.97180000
H       -0.88990000       1.82320000       0.62450000
H        0.03760000      -3.74590000      -0.34240000
H        0.12020000      -2.82640000       2.00760000
