16
Properties=species:S:1:pos:R:3 gdb_53997=T pbc="F F F"
C        0.26760000       1.49500000       0.56270000
C        0.18460000       0.02110000       0.05230000
C        0.28830000      -0.88220000       1.29440000
O       -0.59620000      -0.95560000       2.10890000
C       -1.21280000      -0.14000000      -0.53900000
O       -1.49930000      -0.07040000      -1.71100000
C        1.40360000      -0.23100000      -0.86000000
N        1.19930000      -0.14110000      -2.19090000
O        2.48760000      -0.45000000      -0.34610000
H        1.24320000       1.65790000       1.02640000
H        0.15000000       2.19010000      -0.27260000
H       -0.51540000       1.67810000       1.30280000
H        1.23810000      -1.43820000       1.38430000
H       -1.99000000      -0.30020000       0.23210000
H        0.26150000      -0.04260000      -2.55530000
H        1.98360000      -0.31410000      -2.79900000
