19
Properties=species:S:1:pos:R:3 gdb_62230=T pbc="F F F"
C       -0.06920000       1.58110000      -0.10920000
C       -0.01650000       0.04510000       0.02320000
C        0.79870000      -0.44860000       1.24080000
C        2.27690000      -0.08880000       1.15230000
O        2.92500000      -0.70940000       2.26000000
C        4.19420000      -0.32610000       2.50700000
N        4.85470000      -0.88910000       3.42150000
C       -1.37800000      -0.49760000       0.09330000
N       -2.45340000      -0.91600000       0.15510000
H        0.93130000       1.98760000      -0.27610000
H       -0.69850000       1.87500000      -0.95240000
H       -0.48110000       2.03270000       0.79780000
H        0.43760000      -0.36770000      -0.88790000
H        0.37750000      -0.03210000       2.16170000
H        0.71570000      -1.53670000       1.31730000
H        2.70810000      -0.45910000       0.21060000
H        2.42870000       0.99740000       1.19040000
H        4.54170000       0.48830000       1.85530000
H        5.78200000      -0.47500000       3.48800000
