17
Properties=species:S:1:pos:R:3 gdb_20875=T pbc="F F F"
C        0.01890000       1.54150000      -0.02020000
C        0.06120000       0.01210000      -0.02780000
C        0.62630000      -0.57010000       1.28030000
C        0.72100000      -2.06120000       1.25780000
N       -0.00530000      -2.83930000       2.04890000
N        0.39190000      -4.08180000       1.67740000
C        1.31780000      -4.00290000       0.70260000
N        1.55370000      -2.74160000       0.40770000
H        1.02110000       1.96450000       0.11210000
H       -0.38550000       1.93170000      -0.95930000
H       -0.60880000       1.91880000       0.79500000
H       -0.94700000      -0.38830000      -0.18990000
H        0.67400000      -0.34420000      -0.86310000
H        1.62740000      -0.15530000       1.45230000
H        0.00090000      -0.27630000       2.12890000
H       -0.00110000      -4.89110000       2.12860000
H        1.78010000      -4.86890000       0.25250000
