21
Properties=species:S:1:pos:R:3 gdb_114210=T pbc="F F F"
C        0.13630000       1.29230000       0.07410000
O       -0.22940000      -0.01600000      -0.30330000
C        0.59470000      -0.58710000      -1.29770000
C        1.90300000      -1.22050000      -0.73370000
C        1.15770000      -2.55860000      -0.64020000
C        1.67390000      -3.95670000      -0.51300000
C        0.87750000      -3.33310000       0.61200000
C        0.04940000      -2.02380000      -1.56840000
O       -1.29260000      -2.26520000      -1.26500000
H        1.14530000       1.32900000       0.50890000
H        0.10330000       1.98020000      -0.78430000
H       -0.58300000       1.62640000       0.82560000
H        0.69120000       0.09640000      -2.15240000
H        2.71410000      -1.22120000      -1.46900000
H        2.27320000      -0.79110000       0.20120000
H        1.19780000      -4.73110000      -1.10700000
H        2.74020000      -4.09920000      -0.36580000
H        1.40250000      -3.05370000       1.52010000
H       -0.14270000      -3.67220000       0.75980000
H        0.21250000      -2.32590000      -2.60880000
H       -1.50810000      -1.66410000      -0.53920000
