19
Properties=species:S:1:pos:R:3 gdb_95193=T pbc="F F F"
O        0.39790000       0.70380000       0.98780000
C       -0.02090000      -0.28690000       0.08340000
C       -1.56790000      -0.37860000       0.03680000
C       -2.13700000       0.19910000      -1.26990000
C       -1.57650000      -0.56480000      -2.46360000
C       -0.75720000       0.15500000      -3.50600000
C       -0.06930000      -0.68970000      -2.46090000
C        0.59930000      -0.01700000      -1.29600000
O        1.55920000       0.71850000      -1.38390000
H        1.17690000       1.11010000       0.57540000
H        0.37960000      -1.27500000       0.38370000
H       -1.87810000      -1.42470000       0.13260000
H       -1.95050000       0.15500000       0.91100000
H       -3.23060000       0.16580000      -1.26810000
H       -1.85940000       1.25890000      -1.33930000
H       -2.14820000      -1.42980000      -2.78610000
H       -0.76100000      -0.22460000      -4.52150000
H       -0.66450000       1.23370000      -3.43280000
H        0.39820000      -1.61590000      -2.78200000
