19
Properties=species:S:1:pos:R:3 gdb_124543=T pbc="F F F"
C       -0.05210000       1.56190000       0.01330000
C       -0.03810000       0.02270000       0.01300000
C        0.75120000      -0.52740000       1.21440000
C       -1.43510000      -0.53940000      -0.03060000
N       -2.30690000      -0.31320000       0.95620000
N       -3.42480000      -0.95210000       0.58780000
C       -3.31600000      -1.59020000      -0.60850000
C       -2.02950000      -1.34040000      -1.03850000
O       -1.49540000      -1.79860000      -2.20550000
H        0.96750000       1.96130000       0.02020000
H       -0.56950000       1.95420000      -0.86740000
H       -0.57460000       1.93210000       0.90000000
H        0.48080000      -0.30380000      -0.90180000
H        0.80520000      -1.61990000       1.18700000
H        1.77240000      -0.13200000       1.22430000
H        0.26030000      -0.24060000       2.14880000
H       -4.22780000      -0.91800000       1.19100000
H       -4.12260000      -2.15100000      -1.04980000
H       -0.58770000      -1.48570000      -2.26930000
