14
Properties=species:S:1:pos:R:3 gdb_24816=T pbc="F F F"
N       -0.04750000       1.32390000       0.01050000
C       -0.00660000       0.04740000       0.00340000
N        1.21240000      -0.67330000      -0.00800000
C        1.19650000      -1.95320000      -0.01480000
N        0.06130000      -2.72130000      -0.01200000
C       -1.16890000      -2.10380000      -0.00110000
C       -1.25630000      -0.75120000       0.00680000
C       -2.52180000      -0.11270000       0.01800000
C       -3.60530000       0.41200000       0.02750000
H        0.91160000       1.67740000       0.00650000
H        2.13040000      -2.51260000      -0.02360000
H        0.12850000      -3.72520000      -0.01770000
H       -2.03710000      -2.74920000       0.00080000
H       -4.54880000       0.89860000       0.03600000
