16
Properties=species:S:1:pos:R:3 gdb_26539=T pbc="F F F"
C        0.04580000       1.49550000       0.02050000
C       -0.02260000       0.01030000       0.06720000
C       -1.21580000      -0.71990000      -0.08390000
O       -2.36080000      -0.24190000      -0.27350000
C       -1.05090000      -2.17620000      -0.00270000
N       -2.20250000      -2.83710000      -0.15030000
H       -2.99990000      -2.22310000      -0.29460000
H       -2.28700000      -3.83640000      -0.12520000
C        0.21260000      -2.74410000       0.20930000
C        1.29210000      -1.91330000       0.33920000
O        1.17330000      -0.59850000       0.27050000
H        0.70270000       1.84890000      -0.78380000
H       -0.96480000       1.86710000      -0.15510000
H        0.42340000       1.91710000       0.96030000
H        0.35720000      -3.81690000       0.27250000
H        2.31170000      -2.23260000       0.50470000
