17
Properties=species:S:1:pos:R:3 gdb_28051=T pbc="F F F"
C       -0.26140000       1.45270000       0.00440000
C       -0.01970000      -0.01990000      -0.04240000
C        0.04180000      -0.88820000      -1.11120000
C        0.29390000      -2.18160000      -0.58370000
O        0.46070000      -3.30390000      -1.35920000
C       -0.20260000      -4.42610000      -0.99060000
N        0.06620000      -5.52320000      -1.55080000
C        0.38500000      -2.08700000       0.78610000
N        0.18390000      -0.75990000       1.09630000
H        0.57440000       1.99370000       0.46520000
H       -0.38630000       1.84040000      -1.00880000
H       -1.16690000       1.70560000       0.56980000
H       -0.07940000      -0.63630000      -2.15270000
H       -0.94810000      -4.23740000      -0.20800000
H       -0.54110000      -6.25350000      -1.18470000
H        0.59830000      -2.82560000       1.54000000
H        0.19730000      -0.38410000       2.02830000
