17
Properties=species:S:1:pos:R:3 gdb_95657=T pbc="F F F"
O       -0.04500000       1.47250000       0.00820000
C       -0.07600000       0.06470000       0.03890000
C       -1.48140000      -0.52570000      -0.07300000
C       -1.38700000      -2.03350000       0.09610000
O       -0.50860000      -2.66050000      -0.86410000
C        0.52850000      -2.00900000      -1.41240000
O        1.21670000      -2.55710000      -2.23560000
C        0.79610000      -0.53090000      -1.07240000
O        0.51200000       0.21540000      -2.25400000
H       -0.04000000       1.72420000      -0.92440000
H        0.34990000      -0.23420000       1.00600000
H       -2.12970000      -0.11150000       0.70440000
H       -1.91450000      -0.27540000      -1.04780000
H       -1.02250000      -2.29030000       1.09880000
H       -2.35160000      -2.52450000      -0.04760000
H        1.86050000      -0.44780000      -0.81590000
H        0.99110000      -0.20780000      -2.97670000
