23
Properties=species:S:1:pos:R:3 gdb_70995=T pbc="F F F"
C       -0.08960000       1.58190000      -0.00810000
C       -0.03760000       0.07160000       0.00070000
C        1.06130000      -0.73960000      -0.86040000
C        0.70070000      -1.86020000       0.17090000
C        1.20740000      -2.80620000       1.30340000
C        0.38540000      -1.86540000       2.29600000
C        0.58370000      -0.75970000       1.19740000
C       -0.76610000      -2.15030000      -0.25470000
C       -1.31620000      -0.70010000      -0.35580000
H        0.87260000       2.01880000       0.27890000
H       -0.34600000       1.96400000      -1.00330000
H       -0.84850000       1.95010000       0.69230000
H        0.83980000      -0.89670000      -1.92270000
H        2.06450000      -0.32640000      -0.73700000
H        0.93150000      -3.86370000       1.25280000
H        2.28050000      -2.72430000       1.49570000
H       -0.63840000      -2.21300000       2.44100000
H        0.83050000      -1.66610000       3.27380000
H        1.57940000      -0.33840000       1.38280000
H       -0.78880000      -2.67960000      -1.21270000
H       -1.31580000      -2.76310000       0.46310000
H       -2.12450000      -0.50170000       0.35560000
H       -1.68420000      -0.44430000      -1.35480000
