16
Properties=species:S:1:pos:R:3 gdb_20242=T pbc="F F F"
C       -0.03230000       1.55120000      -0.05470000
C        1.42810000       1.96710000       0.06570000
C        2.18410000       1.32780000       1.20100000
O        1.47520000       0.44790000       2.03830000
C        0.84320000      -0.49360000       1.20660000
C        0.00490000       0.03370000       0.07160000
C        1.42860000      -0.46270000      -0.18870000
C        2.32440000       0.75410000      -0.19240000
H       -0.65090000       2.00910000       0.72630000
H       -0.44330000       1.85090000      -1.02550000
H        1.73150000       2.95720000      -0.25700000
H        2.97020000       1.85720000       1.72580000
H        0.57270000      -1.39950000       1.73570000
H       -0.85140000      -0.55130000      -0.24630000
H        1.66790000      -1.34840000      -0.76080000
H        3.23950000       0.78650000      -0.76730000
