18
Properties=species:S:1:pos:R:3 gdb_125225=T pbc="F F F"
C        0.08190000       1.50470000       0.03790000
C        0.00600000       0.01510000      -0.04660000
C        0.10570000      -0.84810000      -1.11810000
C       -0.05260000      -2.14270000      -0.56300000
N       -0.23570000      -2.09710000       0.75280000
N       -0.19880000      -0.77190000       1.04060000
N       -0.09240000      -3.34760000      -1.27900000
C        1.17540000      -3.97390000      -1.66880000
C        0.32510000      -4.56590000      -0.59870000
H        0.92200000       1.83600000       0.65940000
H        0.21740000       1.92920000      -0.95870000
H       -0.83230000       1.93490000       0.46270000
H        0.25980000      -0.58880000      -2.15280000
H       -0.33580000      -0.48050000       1.99290000
H        1.19360000      -4.40590000      -2.66510000
H        2.09380000      -3.48040000      -1.35980000
H        0.66540000      -4.46770000       0.42750000
H       -0.28240000      -5.44170000      -0.80680000
