16
Properties=species:S:1:pos:R:3 gdb_31672=T pbc="F F F"
C       -0.26400000       1.51240000      -0.06990000
C        0.10390000       0.02120000       0.01920000
C        0.87220000      -0.46260000      -1.16040000
N        2.08260000      -0.90550000      -1.22090000
C        2.28930000      -1.20530000      -2.56710000
C        3.53200000      -1.74430000      -3.12620000
O        4.53070000      -1.99680000      -2.49770000
C        1.15080000      -0.91170000      -3.25540000
O        0.23490000      -0.43710000      -2.38000000
H        0.63440000       2.13370000      -0.12510000
H       -0.87370000       1.71400000      -0.95480000
H       -0.83410000       1.81360000       0.81290000
H        0.72140000      -0.17500000       0.89850000
H       -0.80950000      -0.57760000       0.11800000
H        3.47980000      -1.90990000      -4.22650000
H        0.85280000      -0.97880000      -4.28850000
