20
Properties=species:S:1:pos:R:3 gdb_94369=T pbc="F F F"
C       -0.40230000       1.38150000       0.02580000
C        0.03660000      -0.07200000      -0.06600000
C        1.37020000      -0.36740000      -0.78590000
O        1.93710000      -0.94900000       0.40940000
C        0.73310000      -0.70590000       1.15860000
C        0.95900000      -0.02020000       2.55070000
C        0.34740000      -1.25900000       3.21210000
N       -1.01590000      -1.38900000       2.64040000
C        0.15810000      -1.92080000       1.89520000
H        0.41150000       2.02130000       0.38430000
H       -0.71470000       1.75730000      -0.95490000
H       -1.24660000       1.48920000       0.71330000
H       -0.79090000      -0.69230000      -0.42090000
H        1.33230000      -1.08780000      -1.61190000
H        1.93190000       0.51800000      -1.11100000
H        2.03360000       0.07170000       2.72520000
H        0.45760000       0.93050000       2.74670000
H        0.58690000      -1.68760000       4.17710000
H       -1.46070000      -2.18720000       3.09380000
H        0.22420000      -2.96130000       1.60130000
