17
Properties=species:S:1:pos:R:3 gdb_97502=T pbc="F F F"
C        0.20820000       1.53730000       0.06980000
C       -0.07110000       0.02910000       0.00650000
O       -1.44740000      -0.22150000      -0.05730000
C        0.61720000      -0.62270000      -1.19570000
O       -0.04730000      -1.20150000      -2.03600000
C        2.05220000      -0.53410000      -1.27120000
C        3.25710000      -0.45580000      -1.31560000
C        4.71550000      -0.42610000      -1.41070000
O        5.21310000      -0.79170000      -2.68320000
H        1.27680000       1.74000000       0.18130000
H       -0.15720000       2.02940000      -0.83630000
H       -0.32180000       1.95900000       0.92710000
H        0.36060000      -0.44410000       0.90580000
H       -1.58020000      -0.73810000      -0.86890000
H        5.07590000       0.59170000      -1.22360000
H        5.12790000      -1.05800000      -0.60680000
H        4.84470000      -1.65190000      -2.91180000
