11
Properties=species:S:1:pos:R:3 gdb_21374=T pbc="F F F"
N       -0.05200000       1.35420000       0.01020000
C        1.28370000       1.74680000      -0.00050000
N        2.15520000       0.76930000      -0.01450000
C        1.35310000      -0.35380000      -0.01300000
N        1.46550000      -1.68440000      -0.02160000
N        0.18180000      -2.05510000      -0.01120000
N       -0.77440000      -1.09990000       0.00360000
C       -0.01000000      -0.01750000       0.00220000
H       -0.85290000       1.96130000       0.02170000
H        1.53950000       2.79720000       0.00290000
H       -0.07430000      -3.02860000      -0.01410000
