19
Properties=species:S:1:pos:R:3 gdb_32092=T pbc="F F F"
C       -0.28590000       1.45990000      -0.11060000
C        0.17290000       0.00240000       0.05780000
C        0.85130000      -0.53120000      -1.17890000
C        2.21800000      -0.82680000      -1.20950000
N        2.82610000      -1.28380000      -2.30300000
C        2.05870000      -1.44820000      -3.37950000
C        0.68980000      -1.16160000      -3.37610000
C       -0.16820000      -1.35610000      -4.59630000
N        0.09600000      -0.70290000      -2.26920000
H        0.56730000       2.12530000      -0.27770000
H       -0.95700000       1.54720000      -0.96910000
H       -0.81660000       1.80570000       0.78120000
H        0.85210000      -0.08360000       0.91270000
H       -0.69880000      -0.62630000       0.27170000
H        2.83370000      -0.69070000      -0.32340000
H        2.54370000      -1.82160000      -4.27820000
H       -0.96540000      -2.07810000      -4.39190000
H       -0.65240000      -0.41550000      -4.87660000
H        0.41740000      -1.71520000      -5.44610000
