17
Properties=species:S:1:pos:R:3 gdb_131860=T pbc="F F F"
O       -0.02000000       1.39220000      -0.33300000
C       -0.03730000       0.02600000       0.06300000
C       -1.49270000      -0.41040000       0.10590000
N       -2.08020000      -0.25680000      -1.21390000
C       -3.40940000      -0.57930000      -1.39710000
N       -4.12720000      -0.06580000      -2.40140000
N       -5.31260000      -0.66670000      -2.25730000
N       -5.43330000      -1.51130000      -1.25290000
C       -4.22910000      -1.47930000      -0.67720000
H        0.88520000       1.64070000      -0.53920000
H        0.50870000      -0.60170000      -0.65590000
H        0.41440000      -0.11070000       1.05670000
H       -1.53350000      -1.46370000       0.40700000
H       -2.02300000       0.17500000       0.87530000
H       -1.82210000       0.62230000      -1.64300000
H       -6.07580000      -0.47360000      -2.88340000
H       -4.01320000      -2.07830000       0.19160000
