13
Properties=species:S:1:pos:R:3 gdb_9006=T pbc="F F F"
C        0.09450000       1.50280000      -0.00350000
C        0.03040000       0.05070000       0.05210000
C       -0.02520000      -1.14970000       0.09740000
C       -0.10080000      -2.59700000       0.14970000
C       -1.47610000      -3.16360000      -0.18530000
O       -2.45260000      -2.52900000      -0.47510000
C       -1.53030000      -4.64300000      -0.12580000
N       -1.55940000      -5.79780000      -0.07580000
H        0.82700000       1.83950000      -0.74480000
H       -0.87760000       1.92610000      -0.27790000
H        0.38100000       1.92470000       0.96580000
H        0.61540000      -3.07000000      -0.53900000
H        0.17110000      -2.98600000       1.14260000
