12
Properties=species:S:1:pos:R:3 gdb_4736=T pbc="F F F"
O        0.11460000       1.34800000      -0.07230000
C        0.07030000       0.00040000      -0.06770000
C       -0.02310000      -0.82160000      -1.16950000
N       -0.03320000      -2.09330000      -0.64080000
C        0.05170000      -1.98890000       0.71710000
N        0.11620000      -0.71090000       1.08590000
C        0.06520000      -3.11880000       1.56190000
C        0.07460000      -4.10130000       2.25840000
H        0.17910000       1.62080000       0.85120000
H       -0.08000000      -0.62310000      -2.22470000
H       -0.09260000      -2.95530000      -1.15640000
H        0.08400000      -4.95840000       2.88520000
