19
Properties=species:S:1:pos:R:3 gdb_65167=T pbc="F F F"
C       -0.00230000       1.45920000      -0.71800000
C        0.00400000       0.07800000      -0.09430000
C        1.12440000      -0.85430000      -0.39870000
N        1.00470000      -0.23360000       0.93090000
C       -1.37520000      -0.48080000       0.13260000
N       -1.54130000      -1.59350000       1.05980000
C       -2.15080000      -0.28490000       1.40290000
C       -1.65020000       0.43680000       2.54030000
C       -1.30820000       1.08710000       3.49180000
H        1.01600000       1.79240000      -0.94260000
H       -0.57210000       1.47390000      -1.65440000
H       -0.45950000       2.18700000      -0.03830000
H        0.94360000      -1.92540000      -0.40460000
H        1.90320000      -0.51280000      -1.07640000
H        1.65240000       0.54550000       1.01940000
H       -1.98380000      -0.48290000      -0.77280000
H       -2.26860000      -2.22390000       0.73220000
H       -3.22960000      -0.20450000       1.27840000
H       -0.98050000       1.64050000       4.33650000
