17
Properties=species:S:1:pos:R:3 gdb_72446=T pbc="F F F"
C       -0.01520000       1.47480000       0.08080000
C       -0.01260000      -0.02810000      -0.01840000
C        0.79740000      -0.69210000      -1.16800000
O        1.08230000      -1.99870000      -0.63580000
C        0.51150000      -1.96800000       0.67930000
O        0.65260000      -0.63850000       1.10430000
C       -1.00580000      -2.11210000       0.46380000
O       -1.79050000      -1.22060000       1.26030000
C       -1.36040000      -0.78020000      -0.02600000
H        1.00660000       1.85810000       0.15120000
H       -0.49110000       1.91550000      -0.80090000
H       -0.56980000       1.79310000       0.96730000
H        0.23090000      -0.77920000      -2.10180000
H        1.73510000      -0.15790000      -1.35730000
H        1.03480000      -2.66260000       1.33390000
H       -1.46040000      -3.04050000       0.13780000
H       -2.12430000      -0.57720000      -0.76990000
