15
Properties=species:S:1:pos:R:3 gdb_47693=T pbc="F F F"
N       -0.02320000       0.88370000      -1.12050000
C        0.11640000       0.10170000      -0.13350000
N       -1.05080000      -0.42010000       0.44180000
C       -1.41110000      -1.49770000       1.23450000
O       -2.58410000      -1.73830000       1.42170000
C       -0.36590000      -2.35820000       1.93350000
O        0.98500000      -2.19420000       1.56090000
C        1.44450000      -0.89000000       1.62880000
O        1.32490000      -0.21880000       0.38050000
H        0.88310000       1.24470000      -1.41120000
H       -1.86750000       0.01630000       0.02980000
H       -0.50070000      -2.18690000       3.01210000
H       -0.62720000      -3.39910000       1.73370000
H        0.93100000      -0.31670000       2.41470000
H        2.51900000      -0.91460000       1.81400000
