16
Properties=species:S:1:pos:R:3 gdb_128745=T pbc="F F F"
C        0.19130000       1.08130000       0.57470000
O       -0.17830000       0.44430000      -0.64580000
C        0.62910000      -0.54100000      -1.05850000
N        0.34170000      -1.18860000      -2.10830000
C        1.18700000      -2.18280000      -2.56280000
C        2.47300000      -2.63000000      -2.27260000
C        2.68410000      -3.69800000      -3.16400000
N        1.63210000      -3.91420000      -3.95370000
N        0.74510000      -2.98040000      -3.57120000
H        0.14250000       0.38270000       1.41790000
H        1.19870000       1.50900000       0.51190000
H       -0.53010000       1.88350000       0.73020000
H        1.51130000      -0.71390000      -0.42870000
H        3.15860000      -2.23320000      -1.54180000
H        3.56280000      -4.31830000      -3.26650000
H       -0.15740000      -2.91830000      -4.01330000
