22
Properties=species:S:1:pos:R:3 gdb_8106=T pbc="F F F"
C       -0.25370000       1.27910000      -0.64400000
C        0.14310000      -0.18170000      -0.55190000
C        1.53000000      -0.78420000      -0.60830000
C        2.60560000      -0.00420000       0.16250000
C        3.18330000       1.29520000      -0.39160000
C        1.67410000      -0.00760000       1.42170000
C        0.66610000      -0.89500000       0.66520000
C       -0.00840000      -2.09020000       1.27810000
H       -0.14010000       1.65740000      -1.66620000
H       -1.30580000       1.40290000      -0.36230000
H        0.33370000       1.92240000       0.01360000
H       -0.55170000      -0.82100000      -1.09770000
H        1.75380000      -1.55920000      -1.33540000
H        3.43890000      -0.68730000       0.36180000
H        2.41300000       2.03910000      -0.60770000
H        3.88880000       1.74140000       0.31890000
H        3.72950000       1.10730000      -1.32310000
H        2.12650000      -0.51210000       2.27940000
H        1.30160000       0.96490000       1.76130000
H       -0.77280000      -1.78870000       2.00580000
H       -0.50460000      -2.70020000       0.51570000
H        0.70910000      -2.73110000       1.80450000
