16
Properties=species:S:1:pos:R:3 gdb_30510=T pbc="F F F"
C       -0.17110000       1.40250000       0.08540000
N       -0.19490000      -0.04840000       0.11100000
C        0.62360000      -0.65400000       0.86220000
O        1.53000000       0.04770000       1.64980000
C        2.41950000      -0.57520000       2.46510000
C        2.48730000      -1.90950000       2.56880000
C        1.58450000      -2.71220000       1.78760000
C        0.68790000      -2.11440000       0.96680000
O       -0.20760000      -2.75850000       0.18700000
H        0.80330000       1.79350000      -0.23930000
H       -0.93490000       1.75990000      -0.60900000
H       -0.37180000       1.83590000       1.07520000
H        3.03820000       0.13640000       2.99520000
H        3.21120000      -2.36580000       3.23050000
H        1.62450000      -3.79520000       1.85830000
H       -0.10050000      -3.70830000       0.31340000
