17
Properties=species:S:1:pos:R:3 gdb_7758=T pbc="F F F"
C        0.15910000       1.52890000      -0.12950000
C        0.00440000       0.02590000       0.10520000
O        0.34130000      -0.62410000      -1.13500000
C        1.02590000      -1.79980000      -1.20470000
N        0.95090000      -2.54070000      -2.22910000
C        1.96380000      -2.16060000      -0.07390000
C        1.68410000      -1.43710000       1.20690000
C        0.79440000      -0.45570000       1.28190000
H        1.20970000       1.78220000      -0.29740000
H       -0.42060000       1.83310000      -1.00470000
H       -0.20150000       2.08810000       0.73910000
H       -1.06190000      -0.18740000       0.28200000
H        0.29340000      -2.13860000      -2.90060000
H        1.92040000      -3.24590000       0.06180000
H        2.99010000      -1.95390000      -0.40940000
H        2.24300000      -1.74610000       2.08560000
H        0.59370000       0.05650000       2.21870000
