17
Properties=species:S:1:pos:R:3 gdb_47151=T pbc="F F F"
O       -0.20130000       0.13420000      -0.96550000
C       -0.15070000       1.22380000      -0.44030000
C       -1.23700000       2.30660000      -0.46880000
C       -0.65830000       3.47770000       0.35010000
C        0.70130000       2.99000000       0.78430000
C        0.98560000       1.75460000       0.35400000
C        2.21670000       0.91590000       0.56460000
C        3.25490000       1.55540000       1.36180000
C        4.10060000       2.09790000       2.02120000
H       -1.45510000       2.57410000      -1.50680000
H       -2.16240000       1.90310000      -0.04760000
H       -0.57330000       4.40030000      -0.23670000
H       -1.27820000       3.73080000       1.21870000
H        1.36890000       3.59670000       1.38650000
H        1.91710000      -0.03540000       1.02530000
H        2.61620000       0.62830000      -0.41750000
H        4.86010000       2.55980000       2.60180000
