19
Properties=species:S:1:pos:R:3 gdb_88411=T pbc="F F F"
C       -0.64830000       1.27190000       0.29400000
C       -0.06690000      -0.11940000       0.17270000
C        1.32980000      -0.30780000      -0.35740000
C        1.03450000      -0.61910000       1.08950000
N        1.56640000       0.22540000       2.13460000
C        0.70200000       0.51450000       3.20310000
N        0.99950000       1.24260000       4.19590000
C        2.93610000       0.50970000       2.12950000
O        3.54670000       1.12870000       2.95740000
H        0.10580000       1.99540000       0.61470000
H       -1.04190000       1.60450000      -0.67200000
H       -1.47120000       1.30380000       1.01590000
H       -0.78580000      -0.88530000      -0.10510000
H        1.55070000      -1.13780000      -1.01850000
H        1.89460000       0.59420000      -0.56740000
H        0.99200000      -1.67420000       1.35210000
H       -0.26380000       0.01880000       3.04880000
H        0.20320000       1.28570000       4.83120000
H        3.40690000       0.07140000       1.22940000
