18
Properties=species:S:1:pos:R:3 gdb_98240=T pbc="F F F"
C        0.03650000       1.63300000      -0.96620000
N        0.10360000       0.19340000      -1.10720000
C        0.27980000      -0.63890000      -0.06190000
O        0.43070000      -0.29790000       1.10100000
C        0.27500000      -2.13650000      -0.46900000
O       -0.04540000      -2.32620000      -1.82080000
C        1.64730000      -2.77620000      -0.17990000
C        2.12010000      -2.86090000       1.24150000
O        2.26890000      -3.20730000      -1.12970000
H        0.21360000       1.87210000       0.08320000
H        0.79880000       2.12410000      -1.58030000
H       -0.94750000       2.01580000      -1.25880000
H       -0.05590000      -0.25470000      -1.99780000
H       -0.47120000      -2.61520000       0.18150000
H        0.74800000      -2.75310000      -2.19630000
H        1.52070000      -3.61440000       1.76730000
H        3.16980000      -3.15530000       1.27100000
H        1.94420000      -1.90960000       1.75030000
