18
Properties=species:S:1:pos:R:3 gdb_99656=T pbc="F F F"
C       -0.23000000       1.39200000      -0.00340000
O       -0.24070000       0.02180000       0.35740000
C       -1.39140000      -0.67440000      -0.07050000
C       -1.44400000      -0.75140000      -1.55190000
N       -1.46480000      -0.79600000      -2.70640000
C       -1.36530000      -2.06330000       0.52710000
C       -1.70130000      -2.22900000       1.99460000
C       -2.65340000      -2.72100000       0.93660000
O       -3.82680000      -2.00350000       0.68480000
H        0.67960000       1.82030000       0.42190000
H       -0.21620000       1.52720000      -1.09310000
H       -1.10350000       1.92100000       0.40660000
H       -2.30600000      -0.15850000       0.25670000
H       -0.59430000      -2.70630000       0.11710000
H       -1.13190000      -2.94560000       2.57530000
H       -1.99020000      -1.33190000       2.53190000
H       -2.73050000      -3.79470000       0.77170000
H       -4.43670000      -2.16210000       1.41270000
