22
Properties=species:S:1:pos:R:3 gdb_88591=T pbc="F F F"
C       -0.66690000       3.10950000       0.62960000
C       -1.07810000       1.65250000       0.65620000
C       -0.13270000       0.56540000       0.19010000
O        1.18860000       0.89370000      -0.13270000
C       -0.49710000       0.65090000       1.65050000
C        0.51910000       1.05740000       2.67290000
C        0.18140000       1.01560000       4.12800000
N        1.16590000       0.09580000       3.57250000
C        0.82150000      -1.31540000       3.50560000
H        0.41870000       3.22370000       0.66750000
H       -1.01830000       3.58930000      -0.29090000
H       -1.09490000       3.66180000       1.47260000
H       -2.12530000       1.48610000       0.41520000
H       -0.54480000      -0.26240000      -0.38760000
H        1.18840000       1.32170000      -0.99540000
H       -1.20070000      -0.10120000       1.99160000
H        1.21030000       1.82250000       2.33430000
H        0.55680000       1.76910000       4.81660000
H       -0.79800000       0.61320000       4.39040000
H       -0.25440000      -1.52630000       3.39720000
H        1.34780000      -1.77690000       2.66420000
H        1.16150000      -1.80030000       4.42670000
