20
Properties=species:S:1:pos:R:3 gdb_84839=T pbc="F F F"
C       -0.38970000       1.38700000       0.10970000
C        0.10470000      -0.03740000       0.00450000
N       -0.59000000      -1.09190000       0.77590000
C        0.77950000      -0.68770000       1.15880000
C        1.87120000      -1.71830000       0.97520000
C        1.97690000      -2.22910000      -0.43380000
C        1.34660000      -1.69050000      -1.47430000
C        0.41730000      -0.50790000      -1.41350000
O       -0.80180000      -0.79080000      -2.10070000
H        0.38370000       2.09790000      -0.20170000
H       -1.25920000       1.53290000      -0.53960000
H       -0.67630000       1.63340000       1.13770000
H       -1.26490000      -0.66950000       1.40890000
H        0.86890000      -0.08580000       2.06200000
H        2.83200000      -1.27780000       1.27930000
H        1.70080000      -2.55770000       1.66350000
H        2.61960000      -3.09330000      -0.58520000
H        1.46330000      -2.11490000      -2.46830000
H        0.86240000       0.32690000      -1.97110000
H       -1.24760000      -1.44500000      -1.54540000
