19
Properties=species:S:1:pos:R:3 gdb_125170=T pbc="F F F"
C       -0.01110000       1.52760000       0.12790000
C        0.04220000       0.04710000      -0.06560000
C        0.01860000      -0.75860000      -1.18360000
C       -0.07130000      -0.73880000      -2.68120000
C        0.34330000      -2.20470000      -3.04430000
C        0.04680000      -3.09310000      -1.79460000
C        0.08440000      -2.07580000      -0.69230000
N        0.14850000      -2.13690000       0.62830000
N        0.11620000      -0.82630000       0.98680000
H        0.71490000       1.86650000       0.87550000
H        0.21610000       2.03740000      -0.81110000
H       -1.00220000       1.86480000       0.45510000
H       -1.09350000      -0.52580000      -3.02220000
H        0.57960000      -0.00450000      -3.16740000
H       -0.15820000      -2.56750000      -3.94530000
H        1.41970000      -2.22470000      -3.24310000
H       -0.94420000      -3.55990000      -1.86490000
H        0.77250000      -3.90280000      -1.67770000
H        0.19210000      -0.59170000       1.96240000
