17
Properties=species:S:1:pos:R:3 gdb_71371=T pbc="F F F"
C        0.03410000       1.49020000       0.03870000
C        0.02570000      -0.00370000      -0.05310000
C        0.07200000      -1.07610000       1.09140000
C       -0.39630000      -2.12460000       0.00810000
C        1.07690000      -2.21050000      -0.50070000
C        1.26710000      -0.86890000       0.20600000
O        2.44940000      -0.20860000       0.45140000
C       -0.95980000      -0.90070000      -0.73990000
O       -1.94440000      -0.70000000      -1.39560000
H        0.73890000       1.83050000       0.80130000
H        0.33940000       1.93300000      -0.91500000
H       -0.96280000       1.87030000       0.28050000
H       -0.16570000      -0.92740000       2.13350000
H       -0.99370000      -3.01380000       0.18500000
H        1.62840000      -3.01140000       0.00330000
H        1.23860000      -2.26290000      -1.58280000
H        2.97610000      -0.74250000       1.05670000
