16
Properties=species:S:1:pos:R:3 gdb_28470=T pbc="F F F"
C       -0.07770000       1.52010000      -0.02880000
C       -0.00610000       0.01500000       0.00340000
C       -0.00130000      -0.73660000      -1.16420000
N        0.06170000      -2.07940000      -1.18540000
C        0.12180000      -2.70850000      -0.03550000
O        0.18660000      -4.06910000      -0.01580000
C        0.12420000      -2.06500000       1.21550000
O        0.18810000      -2.77350000       2.37210000
C        0.05890000      -0.68520000       1.21890000
H        0.79890000       1.97460000       0.44680000
H       -0.12750000       1.88850000      -1.05700000
H       -0.96090000       1.89210000       0.50270000
H       -0.05000000      -0.24790000      -2.13350000
H        0.17530000      -4.35740000      -0.93800000
H        0.22520000      -3.70970000       2.13880000
H        0.05900000      -0.16220000       2.17000000
