17
Properties=species:S:1:pos:R:3 gdb_24617=T pbc="F F F"
C        0.02060000       1.48840000      -0.19610000
O        1.42640000       1.58530000       0.10070000
C        1.47650000       0.20750000       0.51670000
C        0.02420000      -0.04830000       0.02910000
C       -0.96900000      -0.65830000       0.96150000
C       -1.26430000      -0.28230000       2.23970000
O       -2.22670000      -1.08030000       2.77160000
C       -2.55860000      -1.98860000       1.81810000
C       -1.82660000      -1.78210000       0.69440000
H       -0.59480000       2.04150000       0.52610000
H       -0.21370000       1.83720000      -1.20840000
H        2.27190000      -0.34960000       0.00860000
H        1.60430000       0.10670000       1.60290000
H        0.01330000      -0.58870000      -0.91970000
H       -0.89610000       0.49670000       2.88710000
H       -3.31930000      -2.70010000       2.09350000
H       -1.87760000      -2.35020000      -0.22190000
