18
Properties=species:S:1:pos:R:3 gdb_36629=T pbc="F F F"
C        0.06640000      -1.15470000      -0.14960000
C        0.06160000       0.04530000      -0.11070000
C        0.01080000       1.49700000      -0.06760000
O        1.34950000       2.00610000       0.07130000
C        1.44190000       3.34130000       0.12180000
N        0.45670000       4.14240000       0.04990000
C        0.97770000       5.50900000       0.17980000
C        2.52470000       5.42210000       0.03350000
C        2.81980000       3.93330000       0.30660000
H        0.07390000      -2.21610000      -0.18370000
H       -0.43880000       1.90850000      -0.97860000
H       -0.59910000       1.85130000       0.77130000
H        0.52200000       6.15720000      -0.57550000
H        0.68190000       5.91140000       1.15780000
H        2.82040000       5.68210000      -0.98700000
H        3.05390000       6.09670000       0.70980000
H        3.16680000       3.74510000       1.32980000
H        3.55510000       3.48600000      -0.36710000
