23
Properties=species:S:1:pos:R:3 gdb_68479=T pbc="F F F"
C       -0.07250000       1.55920000      -0.01680000
C        0.03340000       0.03920000       0.02930000
C        1.11310000      -0.60640000      -0.90000000
C        1.47330000      -1.58050000       0.25510000
C        0.80350000      -0.57910000       1.23780000
C        0.77460000      -2.93850000       0.12060000
O       -0.48770000      -2.90000000      -0.52310000
C       -1.46040000      -2.10400000       0.13080000
C       -1.35210000      -0.60240000      -0.17490000
H        0.91300000       2.02670000       0.08340000
H       -0.50680000       1.89810000      -0.96520000
H       -0.70770000       1.93950000       0.79200000
H        0.76600000      -1.05230000      -1.83490000
H        1.92570000       0.09450000      -1.11120000
H        2.53820000      -1.76270000       0.43000000
H        1.53500000       0.12760000       1.64100000
H        0.22280000      -0.98260000       2.07350000
H        1.38400000      -3.60320000      -0.50100000
H        0.67800000      -3.40590000       1.11620000
H       -2.43350000      -2.46830000      -0.21620000
H       -1.41950000      -2.27970000       1.21740000
H       -2.08710000      -0.09060000       0.46210000
H       -1.66430000      -0.42750000      -1.21280000
