14
Properties=species:S:1:pos:R:3 gdb_132102=T pbc="F F F"
C       -0.01600000       1.55770000       0.02320000
C       -0.00560000       0.05520000      -0.00480000
C       -0.14420000      -0.68580000      -1.12540000
F       -0.30430000      -0.17530000      -2.32260000
O       -0.13810000      -2.00030000      -1.17340000
C        0.02440000      -2.75150000       0.02490000
N        0.01340000      -4.00090000      -0.14690000
N        0.17140000      -2.04900000       1.20600000
C        0.15480000      -0.75430000       1.17100000
H        0.92250000       1.95520000       0.42500000
H       -0.14940000       1.96480000      -0.98050000
H       -0.82870000       1.93890000       0.65120000
H        0.13530000      -4.44890000       0.75940000
H        0.27430000      -0.24210000       2.12690000
