22
Properties=species:S:1:pos:R:3 gdb_96464=T pbc="F F F"
O        0.03750000       1.42870000      -0.13190000
C        0.03430000       0.00570000      -0.04720000
C        0.86160000      -0.50890000       1.14900000
C        0.57370000       0.18090000       2.49300000
C       -0.85850000       0.05540000       3.03600000
C       -1.93040000       0.70190000       2.14970000
N       -2.33780000      -0.20360000       1.07240000
C       -2.57950000       0.35700000      -0.25550000
C       -1.39560000      -0.50730000      -0.00150000
H        0.95290000       1.72540000      -0.10090000
H        0.47680000      -0.41460000      -0.96610000
H        0.69690000      -1.59090000       1.23440000
H        1.92840000      -0.38370000       0.91540000
H        1.27100000      -0.22580000       3.23560000
H        0.81710000       1.24650000       2.39970000
H       -1.12100000      -0.99930000       3.18720000
H       -0.88860000       0.52940000       4.02440000
H       -2.82960000       0.90350000       2.74400000
H       -1.56070000       1.66690000       1.77400000
H       -3.44350000      -0.03150000      -0.78940000
H       -2.38100000       1.41580000      -0.40190000
H       -1.44490000      -1.54970000      -0.31770000
