21
Properties=species:S:1:pos:R:3 gdb_82944=T pbc="F F F"
C       -0.40380000       1.51080000      -0.18460000
C       -0.06080000       0.05810000       0.05850000
N        1.23590000      -0.58730000      -0.25130000
C        2.44430000       0.26690000      -0.33200000
C        2.83120000       0.68310000       1.08760000
N        1.91770000       1.66420000       1.70440000
C        1.74300000       0.22180000       1.98730000
C        0.74560000      -0.56150000       1.15680000
C        0.31810000      -1.88040000       1.76460000
H        0.36060000       2.19820000       0.16540000
H       -0.57790000       1.66570000      -1.25650000
H       -1.33900000       1.75180000       0.33340000
H       -0.86940000      -0.58990000      -0.28790000
H        3.24720000      -0.33690000      -0.76850000
H        2.28560000       1.12990000      -0.98780000
H        3.87620000       0.68410000       1.38290000
H        2.38000000       2.10030000       2.49920000
H        1.94110000      -0.13370000       2.99310000
H       -0.33630000      -1.72140000       2.62960000
H       -0.22310000      -2.48130000       1.03000000
H        1.18550000      -2.46150000       2.09920000
