19
Properties=species:S:1:pos:R:3 gdb_97225=T pbc="F F F"
C        0.35710000       1.37610000       0.06550000
N        0.38100000      -0.07390000       0.01110000
C        0.33880000      -0.64870000      -1.11220000
O        0.22740000       0.03230000      -2.29520000
C        0.64420000      -0.60550000      -3.50940000
C        1.72790000      -1.64910000      -3.23290000
C        1.10820000      -2.65620000      -2.28920000
C        1.52210000      -2.79560000      -0.86380000
N        0.31390000      -2.05240000      -1.21270000
H        0.80670000       1.86000000      -0.81100000
H       -0.67540000       1.74120000       0.14910000
H        0.88790000       1.70590000       0.96390000
H       -0.22410000      -1.07730000      -3.98840000
H        0.99920000       0.19900000      -4.15930000
H        2.05280000      -2.11800000      -4.16580000
H        2.59770000      -1.15770000      -2.78350000
H        0.61340000      -3.50070000      -2.76560000
H        1.35470000      -3.73250000      -0.34130000
H        2.37160000      -2.21590000      -0.51300000
