18
Properties=species:S:1:pos:R:3 gdb_14155=T pbc="F F F"
O        0.10630000       1.18850000      -0.30180000
C       -0.04640000      -0.17300000      -0.02590000
C       -0.55200000      -0.61940000       1.33710000
C       -1.44960000      -0.69030000       0.13980000
C       -2.66310000       0.20860000      -0.10190000
C       -3.56360000      -0.66540000      -1.01080000
C       -2.61060000      -1.78290000      -1.46180000
O       -1.73070000      -1.97580000      -0.35870000
H        0.83490000       1.52400000       0.23100000
H        0.65460000      -0.83880000      -0.52890000
H       -0.16860000      -1.55140000       1.73820000
H       -0.76540000       0.15350000       2.06890000
H       -3.16850000       0.47120000       0.83090000
H       -2.35490000       1.13810000      -0.58510000
H       -4.39030000      -1.09150000      -0.43570000
H       -3.98850000      -0.11180000      -1.85150000
H       -3.10250000      -2.73640000      -1.66820000
H       -2.04500000      -1.47800000      -2.35660000
