17
Properties=species:S:1:pos:R:3 gdb_8127=T pbc="F F F"
C       -0.31460000       1.53450000       0.08390000
C        0.06960000       0.07780000      -0.00370000
C       -0.68540000      -0.96550000       0.80780000
C        0.75550000      -0.66310000       1.11050000
O        1.70850000      -1.56440000       0.58110000
C        1.67670000      -1.53770000      -0.79190000
N        2.33840000      -2.31210000      -1.53500000
C        0.73570000      -0.44170000      -1.26870000
H        0.53440000       2.18340000      -0.15940000
H       -1.12680000       1.77220000      -0.61240000
H       -0.65810000       1.79460000       1.09000000
H       -1.43180000      -0.60130000       1.50610000
H       -0.91370000      -1.92740000       0.35890000
H        1.07830000      -0.21950000       2.04450000
H        2.89420000      -2.95960000      -0.97380000
H        0.04280000      -0.83640000      -2.01640000
H        1.32060000       0.34700000      -1.75510000
