18
Properties=species:S:1:pos:R:3 gdb_85144=T pbc="F F F"
C       -0.21880000       1.51990000      -0.08250000
N       -0.06380000       0.09000000       0.07430000
C       -1.25220000      -0.73430000       0.38110000
C       -0.35590000      -1.53180000       1.33950000
O       -0.45540000      -2.54080000       1.96910000
C        0.74140000      -0.47620000       1.16690000
C        2.23220000      -0.82020000       0.99830000
O        2.58050000      -0.14440000       2.22260000
C        1.23150000       0.30620000       2.42350000
H        0.76090000       1.99000000      -0.21140000
H       -0.80540000       1.72520000      -0.98350000
H       -0.72660000       2.00760000       0.76920000
H       -2.05520000      -0.20660000       0.92340000
H       -1.68990000      -1.26700000      -0.46990000
H        2.48010000      -1.88760000       1.02810000
H        2.68880000      -0.35670000       0.11430000
H        1.13960000       1.39740000       2.34820000
H        0.81960000      -0.02870000       3.38290000
