11
Properties=species:S:1:pos:R:3 gdb_27871=T pbc="F F F"
O       -0.24890000       1.40800000       0.00940000
C        0.01890000       0.09490000       0.00150000
N       -1.14140000      -0.63450000       0.00350000
C       -1.07900000      -1.91930000      -0.00350000
O       -2.23980000      -2.57090000      -0.00100000
N       -0.00590000      -2.77870000      -0.01350000
C        1.21740000      -2.59050000      -0.01870000
O        2.36000000      -2.77530000      -0.02540000
O        1.17360000      -0.31750000      -0.00660000
H        0.60810000       1.85790000       0.00730000
H       -2.04980000      -3.51920000      -0.00690000
