21
Properties=species:S:1:pos:R:3 gdb_79184=T pbc="F F F"
C       -0.14350000       1.59240000      -0.10600000
C        0.02300000       0.07030000      -0.01070000
C        0.80750000      -0.50510000      -1.19500000
C        2.28920000      -0.18100000      -1.26300000
O        2.76060000       0.29760000      -0.00090000
C        2.15450000      -0.88190000       0.63790000
C        1.84760000      -1.50890000      -0.73780000
C        0.81540000      -0.46410000       1.24310000
C        0.94980000       0.48850000       2.43120000
H        0.82720000       2.09300000      -0.12590000
H       -0.67930000       1.85430000      -1.02500000
H       -0.72120000       1.99150000       0.73370000
H       -0.97740000      -0.37810000      -0.00530000
H        0.30930000      -0.66850000      -2.14530000
H        2.82880000       0.11800000      -2.15400000
H        2.86240000      -1.37400000       1.30850000
H        1.99290000      -2.52500000      -1.07600000
H        0.32100000      -1.38380000       1.58590000
H        1.51700000       1.38160000       2.15790000
H       -0.02880000       0.80450000       2.80560000
H        1.47480000      -0.00250000       3.25790000
