18
Properties=species:S:1:pos:R:3 gdb_75219=T pbc="F F F"
C       -0.00660000       1.49330000       0.07210000
C       -0.00560000      -0.00100000      -0.00080000
C        0.03060000      -0.76790000      -1.09570000
C       -0.02030000      -2.24740000      -0.79210000
C        0.01180000      -2.29410000       0.74350000
C        1.21730000      -1.69460000       1.44750000
C       -0.00590000      -0.84060000       1.23980000
C       -0.72750000      -3.31870000       1.41950000
N       -1.32650000      -4.15250000       1.95410000
H        0.86190000       1.86580000       0.62930000
H        0.00620000       1.94220000      -0.92430000
H       -0.89630000       1.86050000       0.59880000
H        0.10070000      -0.39260000      -2.11050000
H       -0.93890000      -2.70980000      -1.17370000
H        0.81580000      -2.80280000      -1.23400000
H        1.41670000      -2.06080000       2.44820000
H        2.09470000      -1.48700000       0.84390000
H       -0.59390000      -0.54930000       2.10340000
