17
Properties=species:S:1:pos:R:3 gdb_27756=T pbc="F F F"
C       -0.09410000       1.50150000       0.06510000
C        0.03190000       0.01680000      -0.00810000
C        0.13790000      -0.82500000      -1.08000000
C        0.22750000      -1.30790000      -2.52400000
C        0.32780000      -2.75560000      -1.90440000
N        0.22780000      -2.10700000      -0.57930000
C        0.17610000      -2.02190000       0.76640000
O        0.24000000      -3.10560000       1.56030000
N        0.05890000      -0.77050000       1.14840000
H        0.73460000       1.94470000       0.62890000
H       -0.09740000       1.94130000      -0.93610000
H       -1.02000000       1.79860000       0.57050000
H       -0.65800000      -1.14540000      -3.14370000
H        1.11350000      -0.99700000      -3.08320000
H       -0.50680000      -3.42430000      -2.12710000
H        1.27520000      -3.27480000      -2.06600000
H        0.18180000      -2.77410000       2.46520000
