15
Properties=species:S:1:pos:R:3 gdb_50184=T pbc="F F F"
O       -0.46770000       0.57120000       0.72160000
C        0.06500000       1.05770000      -0.24130000
C        1.23530000       2.00970000      -0.15910000
C        1.23120000       3.39850000      -0.87230000
N        1.60360000       4.10090000       0.41220000
C        0.49120000       3.85890000       1.36770000
C       -0.88170000       3.81550000       0.93260000
N       -1.97730000       3.82150000       0.56210000
C        1.47980000       2.77430000       1.13390000
H       -0.26110000       0.80940000      -1.27650000
H        2.12630000       1.44790000      -0.46270000
H        2.03260000       3.52650000      -1.59910000
H        0.28590000       3.73660000      -1.30410000
H        0.63340000       4.42190000       2.28560000
H        2.16170000       2.48440000       1.92570000
