19
Properties=species:S:1:pos:R:3 gdb_51704=T pbc="F F F"
O       -0.18760000      -0.06820000       0.02610000
C       -0.08590000       1.12870000      -0.04470000
C        1.22000000       1.89250000      -0.04500000
C        1.35730000       2.81510000      -1.26360000
C        2.61710000       3.71380000      -1.22330000
C        2.78410000       4.20250000      -2.66840000
C        2.20480000       3.07690000      -3.53640000
O        2.30260000       2.98700000      -4.73150000
C        1.47750000       2.08920000      -2.61580000
H       -0.99190000       1.77680000      -0.12010000
H        1.24020000       2.50490000       0.86890000
H        2.04570000       1.17560000       0.00810000
H        0.47600000       3.47150000      -1.30220000
H        2.52440000       4.52490000      -0.49630000
H        3.48390000       3.10970000      -0.92740000
H        2.18310000       5.10170000      -2.85800000
H        3.80880000       4.43680000      -2.96560000
H        2.11470000       1.19840000      -2.52000000
H        0.53480000       1.75820000      -3.05800000
