20
Properties=species:S:1:pos:R:3 gdb_46909=T pbc="F F F"
O        0.00780000      -0.01240000      -0.04030000
C       -0.01440000       1.19850000      -0.03310000
C       -1.34350000       1.94900000      -0.00290000
C       -1.49120000       2.91480000       1.19540000
C       -0.70300000       4.19550000       1.01420000
C        0.09770000       4.80150000       2.11400000
N        0.76360000       4.19940000       0.96240000
C        1.46560000       2.93470000       1.15950000
C        1.28390000       1.99980000      -0.05160000
H       -1.44530000       2.52120000      -0.93540000
H       -2.12980000       1.19060000       0.01150000
H       -2.54960000       3.17760000       1.30070000
H       -1.21390000       2.40160000       2.12200000
H       -1.14190000       4.87020000       0.27880000
H        0.19150000       5.88000000       2.20950000
H        0.12860000       4.25950000       3.05900000
H        2.53000000       3.17100000       1.26340000
H        1.17190000       2.41090000       2.08410000
H        2.09780000       1.27230000      -0.09320000
H        1.32420000       2.61540000      -0.95910000
