19
Properties=species:S:1:pos:R:3 gdb_88504=T pbc="F F F"
O        0.28020000       1.30810000      -0.20290000
C        0.05040000      -0.05460000      -0.02500000
C       -0.39620000      -0.65040000       1.28430000
C       -1.33250000      -0.65710000       0.08350000
C       -2.58610000       0.18480000       0.05250000
C       -3.40290000       0.17810000      -1.23560000
C       -3.92590000      -0.54320000      -0.03010000
C       -2.57470000       1.41110000       0.80830000
C       -2.55890000       2.43250000       1.44800000
H       -0.38570000       1.80390000       0.28970000
H        0.77790000      -0.61630000      -0.60280000
H        0.03330000      -1.58710000       1.62390000
H       -0.63960000       0.04640000       2.08030000
H       -1.47260000      -1.61290000      -0.41520000
H       -3.88230000       1.10380000      -1.53050000
H       -3.00040000      -0.40570000      -2.05610000
H       -3.88920000      -1.62700000      -0.01460000
H       -4.76280000      -0.11060000       0.50500000
H       -2.56180000       3.33080000       2.01470000
