21
Properties=species:S:1:pos:R:3 gdb_6940=T pbc="F F F"
C        0.13180000       1.34100000      -0.21520000
O        0.17380000      -0.06080000      -0.11780000
C        0.50510000      -0.50970000       1.18100000
C        0.53000000      -2.01530000       1.15800000
N        1.82470000      -2.67250000       0.89840000
C        1.15910000      -2.87520000       2.20040000
C        1.88630000      -2.28400000       3.39330000
C        0.52020000      -4.22370000       2.47440000
H        1.10700000       1.79800000       0.01760000
H       -0.13700000       1.59080000      -1.24470000
H       -0.61920000       1.77780000       0.46360000
H        1.48460000      -0.11420000       1.48760000
H       -0.24530000      -0.15090000       1.90870000
H       -0.34760000      -2.43250000       0.66530000
H        1.69380000      -3.48410000       0.29920000
H        2.40080000      -1.35820000       3.13130000
H        1.19100000      -2.07860000       4.21520000
H        2.63950000      -2.98900000       3.76330000
H        1.28090000      -4.96220000       2.75470000
H       -0.19790000      -4.16270000       3.30010000
H       -0.01200000      -4.60000000       1.59480000
