20
Properties=species:S:1:pos:R:3 gdb_55275=T pbc="F F F"
C        0.66330000       0.49950000      -0.76980000
C       -0.58090000       0.72160000       0.05960000
O       -0.83250000       1.77590000       0.60580000
C       -1.54980000      -0.43620000       0.21710000
N       -1.09000000      -1.80250000      -0.11070000
C       -1.82730000      -2.35320000       1.05620000
C       -1.88340000      -0.93560000       1.67380000
C       -0.80510000      -0.65590000       2.71140000
O       -3.16640000      -0.61630000       2.15010000
H        1.29340000       1.38930000      -0.74540000
H        1.20410000      -0.37810000      -0.40400000
H        0.38360000       0.27380000      -1.80640000
H       -2.49840000      -0.14560000      -0.25800000
H       -1.39470000      -2.15730000      -1.01040000
H       -2.84140000      -2.70460000       0.83060000
H       -1.28560000      -3.12560000       1.61170000
H        0.17580000      -0.98460000       2.35410000
H       -0.74270000       0.41520000       2.92910000
H       -1.03780000      -1.19310000       3.63570000
H       -3.13810000       0.28680000       2.48670000
