19
Properties=species:S:1:pos:R:3 gdb_1658=T pbc="F F F"
C       -0.14120000       1.53050000       0.05720000
C        0.11650000       0.02760000      -0.00240000
C        0.74380000      -0.43930000      -1.30860000
O        1.11530000       0.34180000      -2.15590000
C        0.85960000      -1.95410000      -1.51210000
C       -0.36980000      -2.42740000      -2.31510000
C        2.16600000      -2.31460000      -2.22720000
H        0.78440000       2.08820000      -0.10430000
H       -0.84340000       1.83770000      -0.72270000
H       -0.55670000       1.81620000       1.02760000
H        0.79180000      -0.29030000       0.80590000
H       -0.80460000      -0.54820000       0.16280000
H        0.83040000      -2.43740000      -0.52730000
H       -0.38250000      -1.95430000      -3.30200000
H       -0.33850000      -3.51230000      -2.45460000
H       -1.30950000      -2.18180000      -1.80940000
H        3.03870000      -2.04700000      -1.62320000
H        2.21080000      -3.38870000      -2.43190000
H        2.23770000      -1.77250000      -3.17340000
