20
Properties=species:S:1:pos:R:3 gdb_92000=T pbc="F F F"
C        0.78170000       1.54250000      -0.21750000
C        0.14950000       0.17090000       0.03700000
C        0.31700000      -0.84020000      -1.13520000
C        1.24660000      -1.93940000      -0.63410000
C        2.62080000      -1.55410000      -0.12720000
C        1.46590000      -1.71160000       0.83410000
N        0.74740000      -0.51960000       1.19700000
C        0.50080000      -0.13210000       2.47130000
O       -0.17810000       0.82740000       2.78650000
H        1.84720000       1.46040000      -0.45490000
H        0.28310000       2.02910000      -1.06230000
H        0.66440000       2.17430000       0.66510000
H       -0.90900000       0.33180000       0.26610000
H       -0.65010000      -1.27800000      -1.39940000
H        0.70070000      -0.34060000      -2.03020000
H        1.10920000      -2.94120000      -1.02350000
H        3.37890000      -2.33020000      -0.12340000
H        2.99880000      -0.55590000      -0.31890000
H        1.46240000      -2.50500000       1.57240000
H        0.98600000      -0.79860000       3.21250000
