19
Properties=species:S:1:pos:R:3 gdb_52050=T pbc="F F F"
O       -0.31960000       0.01070000      -0.37570000
C       -0.01260000       1.12910000      -0.05230000
C        1.34880000       1.75040000      -0.25180000
C        1.26790000       3.06450000      -1.04920000
C        2.60740000       3.79100000      -1.13570000
C        3.58320000       3.36730000      -2.22600000
C        2.86400000       4.67920000      -2.34450000
C        3.15710000       4.21180000       0.12620000
C        3.59230000       4.55340000       1.19510000
H       -0.75480000       1.80620000       0.43490000
H        1.76350000       1.97310000       0.74160000
H        2.00290000       1.02290000      -0.74040000
H        0.91620000       2.85640000      -2.06630000
H        0.52820000       3.73060000      -0.58770000
H        4.63940000       3.37930000      -1.98610000
H        3.27270000       2.55000000      -2.86830000
H        2.06140000       4.76540000      -3.06920000
H        3.42740000       5.59000000      -2.18190000
H        3.98630000       4.86040000       2.13200000
