23
Properties=species:S:1:pos:R:3 gdb_88600=T pbc="F F F"
C       -0.48690000       1.85210000       0.44010000
C        0.21110000       0.67230000      -0.19430000
N        1.54130000       0.90370000      -0.77740000
C        1.41100000      -0.00660000       0.38020000
C        2.07850000       0.44130000       1.64440000
C        1.94440000      -0.31060000       2.93500000
C        1.11170000      -1.56930000       3.07380000
N        3.22840000      -0.25600000       2.23390000
C        3.79150000      -1.44170000       1.60890000
H        0.22020000       2.50580000       0.95420000
H       -0.99730000       2.44870000      -0.32370000
H       -1.23880000       1.51670000       1.16270000
H       -0.45730000       0.01590000      -0.75220000
H        1.65850000       0.37560000      -1.63770000
H        1.47800000      -1.06970000       0.16700000
H        2.17770000       1.52360000       1.69430000
H        1.94880000       0.28590000       3.84830000
H        1.01290000      -2.13330000       2.14470000
H        1.54070000      -2.23730000       3.82900000
H        0.10140000      -1.30610000       3.40480000
H        3.07150000      -2.17480000       1.21660000
H        4.43660000      -1.12950000       0.78130000
H        4.41730000      -1.95810000       2.34430000
