19
Properties=species:S:1:pos:R:3 gdb_58391=T pbc="F F F"
C        0.35380000       1.58250000       0.13040000
C        0.19050000       0.05890000       0.07080000
C        0.86630000      -0.62330000       1.26640000
C       -1.30240000      -0.32430000      -0.00270000
O       -1.86130000       0.33510000      -1.16420000
C       -3.18300000       0.60240000      -1.14610000
O       -3.74490000       1.11860000      -2.06360000
C       -1.53130000      -1.76480000      -0.09990000
C       -1.73030000      -2.94610000      -0.19110000
H        1.41530000       1.84660000       0.14570000
H       -0.10860000       2.06970000      -0.72990000
H       -0.10100000       1.98990000       1.04180000
H        0.65020000      -0.31070000      -0.85370000
H        0.42340000      -0.29010000       2.21270000
H        0.77820000      -1.71120000       1.21540000
H        1.92940000      -0.36740000       1.29250000
H       -1.80730000       0.06270000       0.89500000
H       -3.67280000       0.30420000      -0.19930000
H       -1.90960000      -3.99020000      -0.27270000
