17
Properties=species:S:1:pos:R:3 gdb_123449=T pbc="F F F"
C       -0.07000000       1.56890000       0.35590000
C       -0.16600000       0.05960000       0.30070000
C       -1.33310000      -0.56240000      -0.37530000
N        0.00360000      -0.63360000      -0.98040000
N        1.28560000       2.04750000       0.12330000
N        2.13960000       2.28250000       1.11180000
C        3.27120000       2.60050000       0.47810000
C        3.04390000       2.53430000      -0.90220000
N        1.77380000       2.17730000      -1.10630000
H       -0.70120000       2.02240000      -0.41300000
H       -0.37200000       1.94640000       1.33520000
H        0.29520000      -0.45150000       1.14290000
H       -1.72780000      -1.50840000      -0.01670000
H       -2.07720000       0.09970000      -0.81250000
H        0.10520000       0.04610000      -1.73140000
H        4.16140000       2.86080000       1.02770000
H        3.70660000       2.72860000      -1.73010000
