16
Properties=species:S:1:pos:R:3 gdb_27774=T pbc="F F F"
C        0.03650000       1.49000000       0.02110000
C       -0.01510000      -0.01100000      -0.00660000
C       -1.19330000      -0.69130000      -0.13590000
C       -1.21570000      -2.13070000      -0.15110000
O       -2.16830000      -2.88150000      -0.24920000
N        0.09040000      -2.67870000      -0.02300000
C        1.21700000      -1.92760000       0.09500000
N        2.40430000      -2.59490000       0.26500000
N        1.21000000      -0.62200000       0.09960000
H        0.67280000       1.85790000      -0.79080000
H       -0.95650000       1.93290000      -0.07520000
H        0.49130000       1.83110000       0.95720000
H       -2.14250000      -0.18030000      -0.22480000
H        0.12180000      -3.68850000       0.02120000
H        2.50040000      -3.50650000      -0.15490000
H        3.21000000      -1.99620000       0.16270000
