17
Properties=species:S:1:pos:R:3 gdb_91718=T pbc="F F F"
C       -0.13560000       1.56700000       0.01570000
C        0.04050000       0.05080000      -0.00780000
C        0.88460000      -0.51710000      -1.19560000
C        1.95530000      -1.33610000      -0.42410000
O        1.22360000      -1.81650000       0.71670000
C        0.84550000      -0.53960000       1.17310000
O        2.09950000       0.17880000       1.28130000
C        2.86530000      -0.30490000       0.25150000
O        3.96190000       0.08170000      -0.01470000
H        0.83030000       2.07900000       0.02360000
H       -0.69420000       1.90240000      -0.86310000
H       -0.69160000       1.88590000       0.90370000
H       -0.94100000      -0.43280000       0.00580000
H        0.29730000      -1.17570000      -1.83740000
H        1.32990000       0.26530000      -1.81490000
H        2.46520000      -2.13960000      -0.94720000
H        0.37510000      -0.58210000       2.15330000
