14
Properties=species:S:1:pos:R:3 gdb_991=T pbc="F F F"
N        0.08150000       1.42900000       0.10300000
C        0.01140000       0.01930000       0.01690000
C       -1.08770000      -0.81110000       0.03080000
N       -0.63000000      -2.10910000      -0.00630000
C        0.74620000      -2.11870000      -0.04130000
C        1.17310000      -0.80900000      -0.02710000
N        2.48300000      -0.28320000      -0.11300000
H        0.70260000       1.80020000      -0.60980000
H       -0.82680000       1.86130000      -0.01460000
H       -2.14120000      -0.58590000       0.06650000
H       -1.21200000      -2.92520000      -0.00690000
H        1.30250000      -3.04130000      -0.07710000
H        3.18760000      -1.00210000      -0.00120000
H        2.63380000       0.42050000       0.60370000
