16
Properties=species:S:1:pos:R:3 gdb_810=T pbc="F F F"
C        0.03400000       1.59460000      -0.00520000
C        0.04780000       0.07210000       0.03610000
C        0.64400000      -0.72050000      -1.17900000
C        1.49780000      -1.58480000      -0.19810000
C        1.09050000      -0.62110000       0.89740000
N        1.49560000      -0.33260000       2.06120000
O        2.53990000      -1.19150000       2.46160000
H        1.02550000       1.98750000      -0.25250000
H       -0.67500000       1.95790000      -0.75670000
H       -0.25550000       2.00790000       0.96550000
H       -0.95450000      -0.30300000       0.28020000
H       -0.07150000      -1.25610000      -1.80510000
H        1.26280000      -0.08380000      -1.81640000
H        1.10930000      -2.59650000      -0.04290000
H        2.57100000      -1.65870000      -0.39000000
H        2.75590000      -0.85070000       3.33610000
