21
Properties=species:S:1:pos:R:3 gdb_78098=T pbc="F F F"
C       -0.02500000       1.57000000       0.05160000
C        0.07130000       0.05940000       0.10150000
C        1.29290000      -0.75740000      -0.24590000
C        2.58360000      -0.06840000       0.23550000
C        1.99310000      -0.07670000       1.69300000
C        0.71800000      -0.76420000       1.18410000
C       -0.00240000      -1.84390000       1.94070000
C        3.79380000      -0.95390000       0.12370000
O        4.84050000      -0.64010000      -0.38240000
H        0.87680000       2.06270000       0.42280000
H       -0.18770000       1.91400000      -0.97560000
H       -0.86620000       1.92470000       0.65720000
H       -0.82930000      -0.42980000      -0.26820000
H        1.26040000      -1.53180000      -1.00500000
H        2.81840000       0.90420000      -0.20410000
H        2.57190000      -0.72470000       2.35850000
H        1.88500000       0.89910000       2.17530000
H       -0.53780000      -1.43290000       2.80570000
H       -0.74000000      -2.34740000       1.30730000
H        0.69280000      -2.60440000       2.31490000
H        3.65160000      -1.97060000       0.56440000
