16
Properties=species:S:1:pos:R:3 gdb_28252=T pbc="F F F"
O        0.12070000       1.31760000       0.22160000
C        0.08130000      -0.02100000      -0.00150000
C        0.07400000      -0.78530000      -1.14940000
C        0.02300000      -2.13990000      -0.69480000
C        0.00230000      -2.13730000       0.66300000
C       -0.05110000      -3.51420000       1.22810000
O       -0.06010000      -4.33620000       0.05380000
C       -0.01590000      -3.55900000      -1.16170000
N        0.03820000      -0.83380000       1.10580000
H        0.15460000       1.76460000      -0.62930000
H        0.10150000      -0.41030000      -2.16060000
H        0.81860000      -3.77790000       1.85180000
H       -0.95460000      -3.72020000       1.82490000
H       -0.90140000      -3.80120000      -1.76820000
H        0.87040000      -3.85890000      -1.74060000
H        0.03430000      -0.49440000       2.05180000
