21
Properties=species:S:1:pos:R:3 gdb_116341=T pbc="F F F"
O       -0.03540000       1.44360000       0.01740000
C        0.04130000       0.02520000      -0.02170000
C       -1.38250000      -0.52570000      -0.03420000
C       -2.19150000      -0.04420000      -1.25220000
C       -3.48780000      -0.83900000      -1.36660000
O       -3.22750000      -2.21230000      -1.63310000
C       -2.40780000      -2.84540000      -0.69300000
C       -0.94290000      -2.97080000      -1.02170000
C       -1.39910000      -2.04290000       0.09040000
H        0.85800000       1.79580000      -0.02420000
H        0.57700000      -0.32200000      -0.91950000
H        0.58070000      -0.36850000       0.85520000
H       -1.88250000      -0.12700000       0.85980000
H       -2.39810000       1.02500000      -1.15540000
H       -1.61600000      -0.17870000      -2.17710000
H       -4.08460000      -0.72910000      -0.44590000
H       -4.09710000      -0.49110000      -2.20550000
H       -2.90520000      -3.67740000      -0.19880000
H       -0.41240000      -3.87670000      -0.74900000
H       -0.63830000      -2.53330000      -1.96620000
H       -1.20000000      -2.40470000       1.09580000
