14
Properties=species:S:1:pos:R:3 gdb_132985=T pbc="F F F"
C       -0.03090000       1.44620000       0.01610000
N       -0.00740000      -0.01180000       0.00270000
C       -0.03700000      -0.71730000      -1.13670000
N       -0.01820000      -2.01870000      -1.21330000
C        0.03570000      -2.61100000       0.00930000
F        0.05630000      -3.92480000      -0.05330000
N        0.06980000      -2.07980000       1.17900000
C        0.05020000      -0.69690000       1.25400000
N        0.07750000       0.01480000       2.30910000
H        0.86530000       1.82370000       0.51220000
H       -0.07830000       1.80920000      -1.01220000
H       -0.89650000       1.79420000       0.58310000
H       -0.08020000      -0.13650000      -2.05500000
H        0.11740000      -0.60130000       3.11910000
