21
Properties=species:S:1:pos:R:3 gdb_81777=T pbc="F F F"
C       -0.41790000       1.56240000       0.35920000
C       -0.11670000       0.07530000       0.20200000
C        0.25140000      -0.46610000      -1.18910000
C        1.59740000       0.07670000      -1.63550000
C        1.57340000      -1.02340000      -0.63860000
O        2.24720000      -2.20290000      -0.85770000
C        1.22570000      -0.54060000       0.77420000
C        2.21270000       0.34010000       1.52400000
O        0.96670000      -1.73960000       1.50860000
H        0.35930000       2.19290000      -0.08380000
H       -1.36270000       1.81430000      -0.13450000
H       -0.51250000       1.84380000       1.41410000
H       -0.93550000      -0.51390000       0.62630000
H       -0.44400000      -0.89200000      -1.90210000
H        1.89800000      -0.25310000      -2.62530000
H        1.92650000       1.08430000      -1.39010000
H        1.92860000      -2.81530000      -0.18120000
H        2.46680000       1.23890000       0.95620000
H        1.79660000       0.66730000       2.48560000
H        3.13420000      -0.21600000       1.72080000
H        0.71790000      -1.50130000       2.40720000
