19
Properties=species:S:1:pos:R:3 gdb_114457=T pbc="F F F"
O       -0.00560000       1.42210000      -0.18300000
C        0.06540000       0.04030000       0.10670000
C       -1.32300000      -0.58770000       0.11780000
O       -1.96090000      -0.32020000      -1.15710000
C       -2.26470000      -1.62150000      -1.62530000
C       -2.78310000      -2.50900000      -0.45700000
C       -2.13240000      -3.73860000      -1.12870000
C       -1.09860000      -2.60720000      -1.32440000
C       -1.38820000      -2.11040000       0.13800000
H       -0.54710000       1.49290000      -0.97870000
H        0.70200000      -0.49190000      -0.61860000
H        0.53030000      -0.05710000       1.09430000
H       -1.92570000      -0.12550000       0.91080000
H       -2.76050000      -1.58330000      -2.59460000
H       -3.74840000      -2.43850000       0.04560000
H       -1.83740000      -4.55360000      -0.46370000
H       -2.61820000      -4.12570000      -2.02910000
H       -0.13010000      -2.65660000      -1.82250000
H       -0.98280000      -2.65220000       0.99280000
