19
Properties=species:S:1:pos:R:3 gdb_95006=T pbc="F F F"
C       -0.21870000       1.58650000      -0.00220000
C        0.02240000       0.07440000      -0.05210000
O        0.71260000      -0.31120000      -1.23970000
C        2.12650000      -0.25340000      -1.15430000
C        2.63870000      -0.74820000       0.19000000
C        1.70080000      -1.65810000       1.03290000
O        2.41200000      -1.22700000       2.25510000
C        2.19800000       0.00520000       1.47120000
C        0.73920000      -0.44660000       1.19020000
H        0.72460000       2.13930000       0.06020000
H       -0.74770000       1.91260000      -0.90150000
H       -0.82200000       1.85410000       0.87170000
H       -0.94780000      -0.43190000      -0.12920000
H        2.49840000      -0.88980000      -1.96420000
H        2.50150000       0.76640000      -1.34560000
H        3.68870000      -1.04740000       0.18610000
H        1.47420000      -2.71910000       0.92610000
H        2.57210000       0.94030000       1.89020000
H        0.10790000      -0.48020000       2.08050000
