21
Properties=species:S:1:pos:R:3 gdb_103255=T pbc="F F F"
C        0.12230000       1.32110000       0.45290000
C       -0.04460000      -0.04830000      -0.21890000
C       -1.44770000      -0.63360000      -0.08490000
C       -2.51220000       0.13710000      -0.85630000
C       -1.72140000      -2.09910000       0.02390000
C       -0.62500000      -2.86150000       0.78100000
C       -0.91150000      -1.93130000       1.99140000
O       -0.54580000      -1.94320000       3.13340000
C       -1.97390000      -1.17410000       1.25370000
H        1.15210000       1.67610000       0.35110000
H       -0.53090000       2.07890000       0.00980000
H       -0.10770000       1.26130000       1.52150000
H        0.19160000       0.03420000      -1.28830000
H        0.69720000      -0.73280000       0.20160000
H       -2.25970000       0.16920000      -1.92210000
H       -3.49550000      -0.33190000      -0.75670000
H       -2.59920000       1.16860000      -0.50240000
H       -2.48670000      -2.57870000      -0.57390000
H       -0.92430000      -3.88210000       1.03990000
H        0.38300000      -2.88720000       0.36000000
H       -2.89510000      -0.79300000       1.67870000
