21
Properties=species:S:1:pos:R:3 gdb_120865=T pbc="F F F"
O       -0.02830000       1.35650000       0.36480000
C       -0.15930000      -0.05110000       0.48590000
C       -1.26920000      -0.49440000      -0.46350000
C       -1.45050000      -1.99130000      -0.44590000
O       -2.05340000      -2.57080000       0.72100000
C       -2.74110000      -2.69570000      -0.53290000
C       -4.09090000      -2.03420000      -0.65390000
C       -5.15520000      -2.77750000       0.14900000
O       -6.39260000      -2.11650000      -0.06430000
H        0.62810000       1.65330000       1.00170000
H        0.78170000      -0.56420000       0.22580000
H       -0.42240000      -0.34770000       1.51210000
H       -2.19250000       0.01780000      -0.18250000
H       -1.01240000      -0.17280000      -1.48050000
H       -0.57610000      -2.54840000      -0.79360000
H       -2.70670000      -3.71110000      -0.93730000
H       -4.05470000      -0.99840000      -0.30820000
H       -4.39270000      -2.01760000      -1.70850000
H       -5.20240000      -3.82970000      -0.17770000
H       -4.87200000      -2.77580000       1.21210000
H       -7.05870000      -2.54130000       0.48380000
