12
Properties=species:S:1:pos:R:3 gdb_24743=T pbc="F F F"
O        0.07260000      -0.06340000       0.00360000
C       -0.05460000       1.14350000       0.00780000
C        1.13560000       2.02130000       0.00120000
N        2.09260000       2.66930000      -0.00420000
C       -1.33610000       1.82050000       0.01910000
C       -2.61790000       1.33030000       0.02740000
C       -3.47500000       2.46020000       0.03680000
C       -2.65420000       3.55460000       0.03360000
O       -1.36030000       3.18730000       0.02300000
H       -2.88750000       0.28640000       0.02660000
H       -4.55320000       2.46870000       0.04490000
H       -2.84020000       4.61660000       0.03780000
