20
Properties=species:S:1:pos:R:3 gdb_113257=T pbc="F F F"
C        0.14880000       1.58820000      -0.18560000
C        0.11060000       0.07660000      -0.04580000
C        1.32690000      -0.73350000      -0.42900000
C        0.90820000      -0.64940000       1.01760000
C        1.61230000       0.11160000       2.11140000
O        0.69910000       0.48080000       3.12730000
N       -1.19020000      -0.49430000      -0.29830000
C       -2.17180000      -0.43080000       0.63790000
O       -2.03600000       0.00930000       1.76540000
H        1.14950000       1.98510000      -0.00340000
H       -0.14460000       1.88050000      -1.20010000
H       -0.54050000       2.05940000       0.52060000
H        1.19160000      -1.68350000      -0.93500000
H        2.19380000      -0.17000000      -0.75890000
H        0.41140000      -1.54120000       1.38880000
H        2.38950000      -0.51510000       2.56910000
H        2.12580000       0.99440000       1.69770000
H       -0.19160000       0.47710000       2.74540000
H       -1.44410000      -0.76430000      -1.23700000
H       -3.13230000      -0.84200000       0.27430000
