22
Properties=species:S:1:pos:R:3 gdb_79580=T pbc="F F F"
C        0.01890000       1.57330000       0.10790000
C        0.11210000       0.06120000       0.11340000
C        1.36190000      -0.70630000      -0.19320000
N        2.55750000       0.00540000       0.31070000
C        3.17850000      -0.94310000       1.26000000
C        1.99350000      -0.17870000       1.72460000
C        2.07970000       0.86530000       2.80380000
C        0.72570000      -0.82030000       1.19560000
C       -0.02910000      -1.92760000       1.88040000
H        0.97430000       2.03200000       0.36750000
H       -0.25560000       1.92950000      -0.89120000
H       -0.74480000       1.93080000       0.80750000
H       -0.76580000      -0.42680000      -0.31140000
H        1.45720000      -1.43660000      -0.99040000
H        3.10240000      -2.00890000       1.05490000
H        4.15300000      -0.61610000       1.61280000
H        3.05130000       1.36760000       2.78240000
H        1.29970000       1.62420000       2.69850000
H        1.96470000       0.40130000       3.79070000
H       -0.60880000      -1.55040000       2.73210000
H       -0.73470000      -2.40700000       1.19410000
H        0.64810000      -2.70230000       2.25780000
