16
Properties=species:S:1:pos:R:3 gdb_46296=T pbc="F F F"
N        0.02270000       1.22820000      -0.13960000
C        0.03230000      -0.01300000       0.02490000
O        1.04340000      -0.87930000       0.37180000
C        0.12240000      -2.01570000       0.40190000
C       -1.04780000      -1.08900000      -0.02060000
C       -2.26970000      -0.89200000       0.91470000
N       -3.35670000      -1.43270000       0.08900000
C       -2.85300000      -1.53040000      -1.19170000
N       -1.59180000      -1.38680000      -1.35000000
H        0.94980000       1.63540000      -0.00680000
H        0.39590000      -2.76730000      -0.34000000
H        0.06640000      -2.44540000       1.40600000
H       -2.17710000      -1.43100000       1.86190000
H       -2.41220000       0.17420000       1.12650000
H       -4.29310000      -1.08020000       0.22070000
H       -3.52750000      -1.77160000      -2.00840000
