23
Properties=species:S:1:pos:R:3 gdb_113146=T pbc="F F F"
C       -0.03300000       1.54330000      -0.30070000
C       -0.01890000       0.09930000       0.21740000
C       -1.38770000      -0.54580000       0.14040000
C       -1.87010000      -1.23890000      -1.10490000
C       -1.60890000      -2.05920000       0.15500000
C       -0.42810000      -3.02130000       0.17210000
C       -2.76040000      -2.53030000       0.88460000
C       -3.70780000      -2.94230000       1.50600000
C       -4.85620000      -3.43580000       2.25330000
H        0.96070000       1.99730000      -0.23510000
H       -0.35470000       1.58210000      -1.34670000
H       -0.72310000       2.16460000       0.28050000
H        0.70830000      -0.48200000      -0.35960000
H        0.33430000       0.08790000       1.25680000
H       -2.15410000       0.00380000       0.68120000
H       -2.89740000      -1.10370000      -1.42180000
H       -1.15980000      -1.36690000      -1.91680000
H        0.40300000      -2.65420000      -0.43470000
H       -0.06380000      -3.17760000       1.19260000
H       -0.72990000      -3.99470000      -0.22700000
H       -4.63940000      -4.40420000       2.71840000
H       -5.14300000      -2.74430000       3.05390000
H       -5.72980000      -3.57140000       1.60550000
