10
Properties=species:S:1:pos:R:3 gdb_130667=T pbc="F F F"
C       -0.00850000       0.00000000       0.08670000
C        0.06560000       0.00000000       1.45600000
H        0.99780000       0.00000000       2.00270000
C       -1.21500000       0.00000000       2.13360000
N       -2.09780000       0.00000000       1.32140000
N       -2.51380000       0.00000000       0.17210000
C       -1.27700000       0.00000000      -0.70870000
O       -1.39980000       0.00000000      -1.89210000
C        1.18390000       0.00000000      -0.68930000
N        2.16500000       0.00000000      -1.30350000
