20
Properties=species:S:1:pos:R:3 gdb_15002=T pbc="F F F"
C       -0.03580000       1.51760000       0.03420000
C        0.02390000      -0.00990000      -0.02060000
C        0.74320000      -0.53130000      -1.25170000
O        2.08050000      -0.08530000      -1.21570000
C        2.82080000      -0.53680000      -2.34100000
C        2.77700000      -2.06370000      -2.42870000
C        1.31390000      -2.50900000      -2.37500000
O        0.66100000      -1.93810000      -1.24950000
H        0.97000000       1.94490000       0.03360000
H       -0.57520000       1.92650000      -0.82760000
H       -0.55200000       1.85370000       0.93810000
H        0.54440000      -0.40950000       0.85630000
H       -0.98250000      -0.44080000      -0.02270000
H        0.27130000      -0.15070000      -2.18190000
H        2.40700000      -0.09410000      -3.26370000
H        3.84010000      -0.16230000      -2.21480000
H        3.25370000      -2.41260000      -3.35160000
H        3.31840000      -2.49160000      -1.57850000
H        0.79480000      -2.20730000      -3.30150000
H        1.21920000      -3.59330000      -2.27340000
