19
Properties=species:S:1:pos:R:3 gdb_30745=T pbc="F F F"
C       -0.59800000       0.92210000       0.03190000
O        0.66260000       0.26220000      -0.09120000
C        1.00200000      -0.51440000       0.97120000
C        0.79310000      -1.85720000       1.19300000
C        0.05590000      -2.81070000       0.30660000
C        1.41970000      -2.15300000       2.44860000
N        1.35790000      -3.41120000       3.08340000
C        1.98050000      -0.99400000       2.93310000
N        1.69300000       0.01700000       2.02760000
H       -0.60860000       1.60350000       0.89210000
H       -0.74270000       1.49570000      -0.88630000
H       -1.41340000       0.19790000       0.14510000
H        0.68330000      -3.65920000       0.00150000
H       -0.83060000      -3.23190000       0.79700000
H       -0.26900000      -2.30810000      -0.60870000
H        1.47260000      -4.17230000       2.42410000
H        2.06050000      -3.50850000       3.80630000
H        2.52960000      -0.79660000       3.83890000
H        2.08990000       0.93960000       2.03120000
