16
Properties=species:S:1:pos:R:3 gdb_22638=T pbc="F F F"
O       -0.07980000       1.37870000       0.31530000
N        0.05640000      -0.01440000       0.17600000
C       -1.07590000      -0.57940000      -0.00260000
C       -1.19370000      -2.08130000      -0.19090000
C       -2.72830000      -2.36100000      -0.08480000
C       -3.33970000      -0.96740000      -0.12570000
C       -2.41790000      -0.00070000      -0.06340000
C       -3.24800000      -3.25210000      -1.11690000
C       -3.67900000      -3.97860000      -1.97200000
H        0.83320000       1.65860000       0.43640000
H       -0.83230000      -2.36780000      -1.18240000
H       -0.61300000      -2.63980000       0.54530000
H       -2.95330000      -2.81110000       0.89340000
H       -4.41240000      -0.82500000      -0.17690000
H       -2.60090000       1.06370000      -0.03800000
H       -4.05810000      -4.62310000      -2.72590000
