19
Properties=species:S:1:pos:R:3 gdb_59815=T pbc="F F F"
C       -0.08950000       1.53630000       0.03940000
C       -0.04290000       0.00430000       0.03990000
C        0.67740000      -0.53700000       1.28000000
N       -1.41130000      -0.50680000       0.03160000
C       -1.75460000      -1.21620000      -0.94300000
O       -3.03500000      -1.70900000      -0.97810000
C       -3.37490000      -2.49380000      -2.06080000
N       -4.67360000      -2.85870000      -1.93640000
O       -2.63430000      -2.78470000      -2.96610000
H        0.92300000       1.95150000       0.06650000
H       -0.59170000       1.91120000      -0.85720000
H       -0.63950000       1.89960000       0.91300000
H        0.50760000      -0.32900000      -0.85740000
H        0.14910000      -0.23260000       2.18880000
H        0.71840000      -1.63000000       1.26160000
H        1.70190000      -0.15430000       1.32670000
H       -1.15360000      -1.51070000      -1.80610000
H       -5.17940000      -2.65670000      -1.09220000
H       -5.04100000      -3.52080000      -2.59580000
