19
Properties=species:S:1:pos:R:3 gdb_67960=T pbc="F F F"
C       -0.16530000       1.58780000       0.12490000
C       -0.00490000       0.08530000       0.10220000
C       -1.26440000      -0.74390000      -0.15380000
C       -0.93750000      -2.14630000       0.39700000
C       -0.06190000      -1.86730000       1.63720000
C        0.77330000      -0.63940000       1.23820000
C        1.79780000      -0.91250000       0.13720000
O        2.85300000      -1.45350000       0.03240000
O        1.06960000      -0.30530000      -0.85050000
H        0.79270000       2.08010000       0.31390000
H       -0.55020000       1.94970000      -0.83380000
H       -0.86980000       1.88380000       0.90840000
H       -2.09420000      -0.29850000       0.40850000
H       -1.54110000      -0.74020000      -1.21150000
H       -1.83190000      -2.72730000       0.63320000
H       -0.36750000      -2.71470000      -0.34520000
H       -0.68920000      -1.60960000       2.49810000
H        0.56170000      -2.71720000       1.92630000
H        1.14930000      -0.04640000       2.07260000
