25
Properties=species:S:1:pos:R:3 gdb_91347=T pbc="F F F"
C        0.02900000       1.55960000      -0.14740000
C        0.02290000       0.04090000      -0.01180000
C        0.78890000      -0.85390000      -1.02830000
C        1.19900000      -1.81150000       0.12830000
C        2.64910000      -1.63450000       0.62280000
C        2.18840000      -0.47890000       1.56860000
C        2.86420000       0.87660000       1.38880000
C        0.68270000      -0.74290000       1.16730000
C       -0.22170000      -1.07800000       2.33850000
H        1.03170000       1.96800000      -0.28770000
H       -0.57180000       1.86390000      -1.01230000
H       -0.40680000       2.03980000       0.73640000
H       -1.02640000      -0.28260000      -0.01490000
H        0.18200000      -1.28830000      -1.82690000
H        1.64880000      -0.35820000      -1.49200000
H        0.78830000      -2.82210000       0.08260000
H        3.04620000      -2.50040000       1.15970000
H        3.37400000      -1.35340000      -0.14890000
H        2.31140000      -0.77200000       2.61690000
H        2.91690000       1.17850000       0.33900000
H        2.35080000       1.66900000       1.94360000
H        3.89470000       0.82820000       1.76000000
H       -0.42310000      -0.18830000       2.94980000
H       -1.18730000      -1.47150000       2.00090000
H        0.23190000      -1.82860000       2.99620000
