19
Properties=species:S:1:pos:R:3 gdb_39879=T pbc="F F F"
C        0.00680000       1.56820000       0.06100000
C        1.29860000       0.76890000      -0.00030000
C       -0.02820000       0.07540000       0.00790000
C       -0.53210000      -0.95510000       1.02790000
C       -2.05910000      -0.87230000       0.80270000
C       -1.96800000      -1.39850000      -0.64500000
O       -1.45440000      -2.74730000      -0.41890000
C       -0.23640000      -2.07540000      -0.09100000
C       -0.51740000      -0.89730000      -1.05080000
H       -0.23980000       2.05830000       0.99790000
H       -0.28650000       2.12710000      -0.82210000
H        1.86800000       0.79190000      -0.92430000
H        1.90960000       0.72690000       0.89590000
H       -0.14230000      -1.00870000       2.04290000
H       -2.64980000      -1.55380000       1.41790000
H       -2.44020000       0.14760000       0.89600000
H       -2.83290000      -1.36200000      -1.30530000
H        0.65800000      -2.69320000      -0.04160000
H       -0.23970000      -0.88050000      -2.10330000
