19
Properties=species:S:1:pos:R:3 gdb_15072=T pbc="F F F"
C       -0.48270000       1.14060000       0.53880000
C        0.27050000      -0.14380000       0.18210000
N        0.65050000      -0.26240000      -1.22480000
C        1.97980000      -0.25840000      -1.56400000
O        2.45250000      -0.48390000      -2.65570000
C       -0.36690000      -0.67680000      -2.15310000
C       -1.39990000       0.30930000      -2.66510000
C       -0.33700000      -0.22760000      -3.58380000
H        0.10610000       2.02320000       0.27120000
H       -1.44500000       1.19980000       0.02590000
H       -0.67400000       1.17020000       1.61630000
H        1.18800000      -0.20340000       0.77650000
H       -0.33540000      -1.01820000       0.45520000
H        2.60860000       0.00490000      -0.68860000
H       -0.72750000      -1.68810000      -1.96770000
H       -2.42150000      -0.03940000      -2.77060000
H       -1.30420000       1.34180000      -2.35160000
H        0.46560000       0.43310000      -3.87880000
H       -0.61120000      -0.96000000      -4.33430000
