20
Properties=species:S:1:pos:R:3 gdb_62569=T pbc="F F F"
C        0.00860000       1.52230000      -0.01470000
C       -0.00020000       0.00810000       0.10310000
C       -1.20660000      -0.60930000      -0.58110000
N        1.25300000      -0.79180000      -0.19830000
C        2.37260000      -0.03870000       0.32310000
O        3.36320000       0.31490000      -0.23870000
C        1.86730000      -0.01190000       1.77150000
C        0.62820000      -0.73160000       1.22350000
C        0.06830000      -1.94230000       1.91410000
H        0.83890000       2.00300000       0.50350000
H        0.06280000       1.81120000      -1.06940000
H       -0.92320000       1.92760000       0.39410000
H       -1.29230000      -0.21790000      -1.59950000
H       -1.12290000      -1.69390000      -0.65070000
H       -2.12640000      -0.35480000      -0.04290000
H        2.47710000      -0.65680000       2.41120000
H        1.75030000       0.95830000       2.25930000
H       -0.39520000      -1.64780000       2.86310000
H       -0.68730000      -2.45530000       1.31770000
H        0.86490000      -2.65830000       2.14190000
