18
Properties=species:S:1:pos:R:3 gdb_39427=T pbc="F F F"
C        0.02550000       1.44120000       0.09730000
O        1.31490000       1.94420000      -0.24730000
C        2.23190000       2.07970000       0.81340000
C        2.44100000       0.92060000       1.77600000
O        1.34810000       0.56790000       2.62900000
C        1.83390000      -0.42700000       1.73150000
C        0.91360000      -0.92810000       0.65550000
N       -0.53470000      -0.91930000       0.94120000
C        0.00360000      -0.05780000      -0.12430000
H       -0.23910000       1.67040000       1.13320000
H       -0.68720000       1.93940000      -0.56860000
H        3.19450000       2.30190000       0.33880000
H        1.97050000       2.95030000       1.44060000
H        3.39180000       1.01380000       2.30920000
H        2.38590000      -1.22630000       2.23220000
H        1.31760000      -1.79580000       0.13660000
H       -0.97630000      -1.74350000       0.54200000
H       -0.16890000      -0.36310000      -1.15490000
