23
Properties=species:S:1:pos:R:3 gdb_101242=T pbc="F F F"
C       -0.63680000       1.11790000      -1.04350000
C        0.31630000      -0.08080000      -1.15710000
C        1.43100000       0.19080000      -2.17060000
O        0.83720000       0.42460000      -3.44050000
C        0.90940000      -0.43840000       0.19280000
C        0.13210000      -1.24890000       1.21690000
C        1.38520000      -1.80990000       0.58350000
C        1.31290000      -3.00570000      -0.33930000
O        2.55820000      -1.77580000       1.36330000
H       -0.11090000       1.99480000      -0.64670000
H       -1.04100000       1.38050000      -2.02330000
H       -1.46740000       0.89430000      -0.36720000
H       -0.25790000      -0.93470000      -1.53870000
H        2.01930000       1.06310000      -1.83940000
H        2.11510000      -0.67070000      -2.20640000
H        1.53470000       0.65110000      -4.06190000
H        1.52000000       0.35020000       0.62810000
H        0.18860000      -0.94190000       2.25530000
H       -0.82470000      -1.66380000       0.91300000
H        1.28830000      -3.93490000       0.24410000
H        0.41680000      -2.99060000      -0.96460000
H        2.19180000      -3.04420000      -0.99090000
H        2.52670000      -2.52370000       1.97080000
