22
Properties=species:S:1:pos:R:3 gdb_79287=T pbc="F F F"
C       -0.25230000       1.53120000       0.66070000
C       -0.10250000       0.01430000       0.53570000
C        0.33060000      -0.52130000      -0.82660000
C        1.79370000      -0.81880000      -0.78760000
C        2.33100000      -0.48030000       0.60040000
C        3.05380000       0.85960000       0.74780000
C        0.98990000      -0.74360000       1.34260000
C        0.71510000      -2.16580000       0.80870000
N        0.80390000      -1.92080000      -0.65900000
H        0.60260000       2.08550000       0.27210000
H       -1.13370000       1.86460000       0.10170000
H       -0.39910000       1.82530000       1.70540000
H       -1.07520000      -0.42270000       0.79950000
H       -0.20570000      -0.29310000      -1.74090000
H        2.42240000      -0.82750000      -1.67090000
H        3.04130000      -1.25920000       0.90950000
H        2.50650000       1.69770000       0.31520000
H        3.24440000       1.08810000       1.80170000
H        4.02540000       0.81470000       0.24350000
H        0.98920000      -0.60560000       2.42370000
H        1.46460000      -2.90400000       1.10880000
H       -0.27720000      -2.55010000       1.06260000
