16
Properties=species:S:1:pos:R:3 gdb_25610=T pbc="F F F"
O        0.69830000       1.03730000      -1.41990000
C        0.33760000       1.47150000      -0.34420000
N        1.08730000       1.45300000       0.78760000
C        2.47630000       0.99080000       0.76690000
C        3.45990000       2.02530000       0.29330000
C        3.70230000       2.37960000      -0.99950000
O        4.63640000       3.36260000      -1.06090000
C        5.00360000       3.64320000       0.21710000
C        4.31820000       2.86020000       1.08910000
H       -0.66440000       1.91310000      -0.17580000
H        0.75440000       1.96450000       1.58930000
H        2.73250000       0.65550000       1.77550000
H        2.50130000       0.12030000       0.10770000
H        3.28680000       2.04640000      -1.93570000
H        5.75460000       4.40710000       0.33160000
H        4.41210000       2.86140000       2.16460000
