18
Properties=species:S:1:pos:R:3 gdb_84661=T pbc="F F F"
O        0.17010000       1.24020000      -0.38800000
C        0.05080000      -0.14560000      -0.03710000
C        0.76140000      -0.46350000       1.25800000
C        0.14000000      -0.37960000       2.43570000
C       -1.28920000       0.01640000       2.52360000
N       -1.66090000       1.26920000       1.79410000
C       -2.11040000      -0.03950000       1.28380000
C       -1.45050000      -0.52090000       0.00410000
O       -2.10200000      -0.00650000      -1.14080000
H       -0.22580000       1.71660000       0.36300000
H        0.51390000      -0.68630000      -0.86780000
H        1.81610000      -0.71490000       1.20430000
H        0.66690000      -0.58060000       3.36390000
H       -1.78690000      -0.15310000       3.47350000
H       -2.42090000       1.74360000       2.27490000
H       -3.16780000      -0.27540000       1.37150000
H       -1.54430000      -1.61390000      -0.03040000
H       -1.63690000       0.82240000      -1.33160000
