16
Properties=species:S:1:pos:R:3 gdb_80349=T pbc="F F F"
O        0.06940000       1.37440000       0.31870000
C       -0.05310000       0.00050000       0.11480000
C       -0.45760000      -0.88120000       1.26410000
C       -1.48950000      -0.14230000       2.12400000
C       -2.45040000      -0.06000000       0.88180000
C       -2.92740000       1.23820000       0.42190000
N       -3.28680000       2.25910000       0.01270000
C       -1.35900000      -0.74170000       0.03000000
O       -1.64000000      -1.68610000      -0.93200000
H       -0.38070000       1.84750000      -0.38950000
H        0.71100000      -0.44500000      -0.52390000
H        0.14590000      -1.72010000       1.58540000
H       -1.91690000      -0.74980000       2.92180000
H       -1.16050000       0.81870000       2.51880000
H       -3.30040000      -0.73460000       1.00620000
H       -1.69270000      -1.25420000      -1.79260000
