23
Properties=species:S:1:pos:R:3 gdb_64126=T pbc="F F F"
C        0.39900000       1.41000000       0.37440000
C       -0.16520000       0.04940000      -0.07580000
C       -1.68520000       0.15740000      -0.24070000
C        0.53300000      -0.42910000      -1.37290000
C        1.87120000      -1.06860000      -0.93620000
C        1.71610000      -1.39000000       0.59280000
C        0.23130000      -1.06770000       0.91460000
C        2.11020000      -2.74330000       0.95600000
C        2.42360000      -3.86790000       1.24590000
H        1.48880000       1.39510000       0.47530000
H        0.14880000       2.19130000      -0.35170000
H       -0.01970000       1.70780000       1.34200000
H       -1.94810000       0.90310000      -0.99950000
H       -2.11900000      -0.80040000      -0.54760000
H       -2.16670000       0.45850000       0.69660000
H       -0.09750000      -1.18200000      -1.85940000
H        0.67080000       0.38320000      -2.09370000
H        2.08860000      -1.97550000      -1.50370000
H        2.71430000      -0.38980000      -1.08940000
H        2.34930000      -0.69650000       1.15820000
H        0.08790000      -0.78880000       1.96290000
H       -0.37890000      -1.95820000       0.72680000
H        2.70630000      -4.85780000       1.50490000
