17
Properties=species:S:1:pos:R:3 gdb_41164=T pbc="F F F"
C        0.06260000       1.55790000      -0.22510000
N        1.57190000       1.46500000       0.08130000
C        1.17540000       0.27390000       0.95770000
C        1.18640000      -1.29630000       1.19610000
C       -0.42430000      -1.10020000       1.13270000
C       -0.05460000       0.05460000       0.15560000
O        0.28400000      -0.60710000      -1.12040000
C        1.14380000      -1.63880000      -1.02490000
N        1.65130000      -2.06400000       0.05630000
H       -0.40630000       2.23690000       0.48930000
H       -0.19330000       1.83290000      -1.25050000
H        2.02140000       1.12780000      -0.76880000
H        0.91470000       0.71710000       1.92200000
H        1.62270000      -1.67360000       2.12040000
H       -0.99860000      -1.94520000       0.74820000
H       -0.82930000      -0.74880000       2.08120000
H        1.36690000      -2.07690000      -1.99480000
