17
Properties=species:S:1:pos:R:3 gdb_82896=T pbc="F F F"
O        0.04230000       1.49230000      -0.08520000
C        0.02970000       0.08720000       0.01560000
C        0.15040000      -0.62310000       1.39770000
C       -0.91030000       0.12290000       2.23190000
C       -2.07530000      -0.38860000       1.36830000
O       -1.99740000      -1.82720000       1.60220000
C       -0.81950000      -1.76110000       0.79950000
C       -1.34220000      -0.57840000      -0.04130000
O       -2.08410000      -0.74780000      -1.19470000
H        0.95430000       1.79710000      -0.04700000
H        0.68590000      -0.37910000      -0.73240000
H        1.11740000      -0.85800000       1.83590000
H       -1.00510000      -0.22900000       3.26070000
H       -0.76950000       1.20420000       2.20490000
H       -3.07930000       0.02160000       1.46510000
H       -0.42550000      -2.70810000       0.43760000
H       -2.37050000       0.12180000      -1.49640000
