21
Properties=species:S:1:pos:R:3 gdb_101086=T pbc="F F F"
C        0.20310000       1.40300000      -0.09460000
C       -0.02050000      -0.09770000      -0.30140000
C       -1.42550000      -0.59820000       0.10990000
C       -2.53740000       0.00300000      -0.75690000
C       -1.42300000      -2.12010000       0.10850000
C       -2.47690000      -2.96840000      -0.49990000
O       -1.23090000      -2.79490000      -1.15180000
C       -0.67040000      -2.80280000       1.21670000
O       -0.32710000      -2.27250000       2.24180000
H        1.23600000       1.67340000      -0.33470000
H       -0.44730000       2.01250000      -0.72920000
H        0.01950000       1.68950000       0.94690000
H        0.15110000      -0.36380000      -1.35160000
H        0.72780000      -0.64340000       0.28340000
H       -1.58820000      -0.30690000       1.15520000
H       -2.47620000       1.09360000      -0.76330000
H       -2.45470000      -0.34230000      -1.79330000
H       -3.53060000      -0.26190000      -0.38220000
H       -2.66490000      -3.96710000      -0.10530000
H       -3.33070000      -2.48490000      -0.96660000
H       -0.45770000      -3.87380000       0.99940000
