17
Properties=species:S:1:pos:R:3 gdb_84148=T pbc="F F F"
C        0.04510000       1.56100000      -0.05530000
C        0.07590000       0.03340000      -0.02330000
N        0.80080000      -0.51940000      -1.16790000
C        1.55750000      -1.43800000      -0.71300000
N        2.33800000      -2.29820000      -1.42810000
O        1.58000000      -1.67290000       0.63210000
C        0.81260000      -0.61790000       1.21380000
C        1.72650000       0.33780000       1.96130000
O        2.92360000       0.35990000       1.85560000
H        1.05710000       1.97700000      -0.04100000
H       -0.43700000       1.88800000      -0.97980000
H       -0.51940000       1.97250000       0.78820000
H       -0.96080000      -0.33130000      -0.03960000
H        2.49590000      -2.01290000      -2.38190000
H        3.15460000      -2.63920000      -0.94400000
H        0.10300000      -1.04870000       1.92870000
H        1.18320000       1.04400000       2.62960000
