17
Properties=species:S:1:pos:R:3 gdb_75224=T pbc="F F F"
C        0.01630000       1.46980000       0.03310000
C        0.00690000      -0.02000000      -0.03950000
N        0.03620000      -0.69960000      -1.11630000
C       -0.01190000      -2.12080000      -0.76380000
C        0.01720000      -2.16070000       0.77540000
C        1.17890000      -1.50120000       1.43650000
N       -0.06600000      -0.73090000       1.21410000
C       -0.76240000      -3.14530000       1.46590000
C       -1.40500000      -4.00880000       2.00140000
H        0.86600000       1.81810000       0.63090000
H        0.07470000       1.89610000      -0.96840000
H       -0.89000000       1.82440000       0.53460000
H       -0.93790000      -2.56890000      -1.13980000
H        0.82250000      -2.65820000      -1.22690000
H        1.39180000      -1.72690000       2.47610000
H        2.04000000      -1.25400000       0.81960000
H       -1.97650000      -4.76050000       2.48720000
