18
Properties=species:S:1:pos:R:3 gdb_67484=T pbc="F F F"
C        0.01950000       1.45120000       0.06380000
C       -0.05180000      -0.03820000      -0.11080000
C       -1.41110000      -0.76140000      -0.01270000
C       -1.35440000      -2.22730000      -0.34170000
C       -0.72630000      -1.72900000       0.92670000
N        0.59530000      -0.98730000       0.86330000
C        1.12890000      -0.84940000      -0.53280000
C        1.28240000      -1.86000000      -1.54240000
C        1.55940000      -2.64700000      -2.41040000
H        1.04170000       1.77430000       0.27810000
H       -0.32350000       1.96340000      -0.84280000
H       -0.61970000       1.77020000       0.89450000
H       -2.33540000      -0.21390000       0.11570000
H       -2.29670000      -2.73690000      -0.15630000
H       -0.79590000      -2.62230000      -1.17620000
H       -1.01330000      -2.08380000       1.90780000
H        2.04570000      -0.26390000      -0.45490000
H        1.76460000      -3.35710000      -3.17300000
