16
Properties=species:S:1:pos:R:3 gdb_45399=T pbc="F F F"
O       -0.02420000       0.03360000       0.09740000
C       -0.01580000       1.22790000       0.00670000
N       -1.01370000       2.18070000       0.01310000
C       -0.13080000       3.34530000       0.00840000
C        0.35290000       3.81210000       1.40670000
C        1.52040000       2.78520000       1.35620000
C        1.08180000       2.33530000      -0.08640000
C        2.04850000       2.29020000      -1.14170000
C        2.86630000       2.25470000      -2.02310000
H       -1.96130000       2.09170000       0.35530000
H       -0.35020000       4.08770000      -0.75840000
H        0.69970000       4.84780000       1.40850000
H       -0.37680000       3.68720000       2.20970000
H        2.50690000       3.24930000       1.35350000
H        1.51050000       1.98330000       2.09640000
H        3.58460000       2.21200000      -2.80400000
