22
Properties=species:S:1:pos:R:3 gdb_78228=T pbc="F F F"
C        0.29260000       1.69690000      -0.61170000
N        0.43350000       0.27380000      -0.34280000
C        1.67630000      -0.44860000      -0.38290000
C        0.86570000      -0.34840000       0.88660000
C        2.06210000       0.30090000       1.64340000
C        1.84520000       1.62960000       2.36910000
C        2.64180000      -0.73270000       2.61700000
C        2.85060000       0.31650000       0.28470000
O        4.06250000      -0.40480000       0.35770000
H        1.17230000       2.31480000      -0.39110000
H        0.06010000       1.82010000      -1.67490000
H       -0.55310000       2.08550000      -0.03650000
H        1.79960000      -1.28060000      -1.07120000
H        0.20330000      -1.08300000       1.33760000
H        1.12990000       1.50500000       3.19020000
H        2.78580000       1.98580000       2.80520000
H        1.46230000       2.41620000       1.71670000
H        2.78530000      -1.70430000       2.14000000
H        3.61110000      -0.40560000       3.00290000
H        1.96030000      -0.86080000       3.46550000
H        3.02870000       1.32270000      -0.12050000
H        4.43340000      -0.44580000      -0.52950000
