16
Properties=species:S:1:pos:R:3 gdb_48509=T pbc="F F F"
O       -0.11760000       0.32710000       0.87100000
C        0.02920000       1.14220000      -0.00780000
C        1.25450000       1.93520000      -0.19370000
C        2.69080000       1.56470000       0.02740000
C        3.21720000       2.47140000      -1.10500000
C        3.73190000       3.74350000      -0.38790000
C        2.29270000       3.81520000       0.14560000
C        1.75100000       3.07570000      -1.11460000
N        2.05440000       2.53290000       0.94770000
H       -0.76660000       1.33430000      -0.76270000
H        3.08490000       0.64670000       0.44400000
H        3.69810000       2.01940000      -1.96930000
H        4.55250000       3.65310000       0.32850000
H        3.93010000       4.55370000      -1.09610000
H        1.85120000       4.69140000       0.61590000
H        1.27180000       3.52600000      -1.97940000
