18
Properties=species:S:1:pos:R:3 gdb_32422=T pbc="F F F"
C        0.07390000       1.60370000       0.08930000
C       -0.07080000       0.07890000      -0.05990000
C        0.64770000      -0.46760000      -1.25810000
C        0.09260000      -1.04940000      -2.37310000
N        1.11270000      -1.38820000      -3.24790000
C        2.30850000      -1.03660000      -2.69530000
O        3.46500000      -1.25750000      -3.36710000
C        2.06520000      -0.46840000      -1.47020000
O        3.06770000       0.06430000      -0.67700000
H        1.12860000       1.88400000       0.16250000
H       -0.34800000       2.11860000      -0.77940000
H       -0.44210000       1.96350000       0.98560000
H        0.30270000      -0.40150000       0.85600000
H       -1.13180000      -0.18810000      -0.12500000
H       -0.93610000      -1.25600000      -2.61800000
H        1.00870000      -1.81510000      -4.15080000
H        4.16900000      -0.88940000      -2.81930000
H        3.09580000      -0.42070000       0.15480000
