15
Properties=species:S:1:pos:R:3 gdb_45013=T pbc="F F F"
N       -0.07890000       1.30140000      -0.56220000
C       -0.01490000       0.16230000      -0.01580000
N        1.15190000      -0.57550000       0.22720000
C        1.28560000      -1.84600000       0.77810000
O        2.33660000      -2.44370000       0.72770000
C        0.04700000      -2.35450000       1.41650000
C       -0.57400000      -1.51020000       2.53580000
C       -1.20380000      -1.54930000       1.18690000
O       -1.17750000      -0.42730000       0.34430000
H        0.84060000       1.64270000      -0.83070000
H        2.00550000      -0.20430000      -0.16580000
H       -0.00430000      -3.43300000       1.48960000
H       -1.05730000      -2.04320000       3.34600000
H       -0.04700000      -0.60880000       2.82770000
H       -2.14470000      -2.06700000       1.05070000
