17
Properties=species:S:1:pos:R:3 gdb_66628=T pbc="F F F"
C       -0.03670000       1.59000000       0.00120000
C       -0.06430000       0.09300000      -0.00850000
C        0.74530000      -0.85610000      -0.96620000
O        1.72650000      -1.14490000       0.05560000
C        0.67050000      -0.86300000       0.99990000
C       -0.48510000      -1.86440000       0.73970000
C       -0.42070000      -1.86490000      -0.81000000
C       -1.29500000      -0.88870000      -0.05600000
O       -2.64970000      -0.68030000      -0.01960000
H        0.99580000       1.95310000       0.05030000
H       -0.49640000       2.00650000      -0.90260000
H       -0.57960000       1.99120000       0.86390000
H        1.16970000      -0.61420000      -1.94030000
H        1.01590000      -0.63150000       2.00670000
H       -0.80220000      -2.73380000       1.29850000
H       -0.67560000      -2.74160000      -1.38970000
H       -2.93920000      -0.38940000      -0.89160000
