14
Properties=species:S:1:pos:R:3 gdb_3670=T pbc="F F F"
C       -0.01870000       1.50310000       0.08550000
C        0.00280000       0.01750000      -0.07110000
C       -0.10690000      -0.78480000      -1.19000000
C       -0.01830000      -2.11260000      -0.69900000
N       -0.14550000      -3.29550000      -1.43080000
N        0.14030000      -2.14180000       0.61970000
N        0.14020000      -0.82850000       0.97770000
H        0.91170000       1.88080000       0.52540000
H       -0.14380000       1.98060000      -0.88840000
H       -0.84390000       1.83290000       0.72720000
H       -0.24560000      -0.45940000      -2.20860000
H        0.33610000      -3.26530000      -2.31950000
H        0.16450000      -4.09430000      -0.89150000
H        0.24520000      -0.59290000       1.94870000
