22
Properties=species:S:1:pos:R:3 gdb_115913=T pbc="F F F"
C       -0.08010000       1.55440000       0.03320000
C       -0.01900000       0.02660000      -0.03190000
C        0.73690000      -0.49850000      -1.24890000
C        0.89670000      -2.02680000      -1.23700000
C        1.33910000      -2.55660000      -2.59400000
N        0.26930000      -2.73550000      -3.59690000
C        1.25960000      -1.66810000      -3.78570000
C        0.75800000      -0.25060000      -3.60170000
O        0.02380000      -0.07930000      -2.40820000
H        0.92290000       1.98800000       0.11760000
H       -0.54480000       1.95650000      -0.87030000
H       -0.66100000       1.88980000       0.89780000
H        0.46050000      -0.37410000       0.86980000
H       -1.03380000      -0.38860000      -0.06120000
H        1.74420000      -0.04160000      -1.27440000
H        1.63020000      -2.30270000      -0.47100000
H       -0.05690000      -2.49210000      -0.96440000
H        2.13070000      -3.30200000      -2.58100000
H        0.48890000      -3.52200000      -4.20240000
H        2.00740000      -1.78690000      -4.56810000
H        1.62560000       0.43330000      -3.62060000
H        0.08520000       0.03150000      -4.41860000
