15
Properties=species:S:1:pos:R:3 gdb_24234=T pbc="F F F"
C       -0.07660000       1.51610000       0.00220000
C        1.42900000       1.87680000      -0.02890000
N        2.19400000       1.43670000       1.15230000
C        2.27650000       0.63710000      -0.10160000
C        1.28970000      -0.46830000      -0.10200000
C        0.03780000       0.02720000      -0.02960000
O       -0.83490000      -1.00690000       0.08310000
C       -0.01500000      -2.10470000       0.04470000
N        1.25320000      -1.85220000      -0.05730000
H       -0.55660000       1.89640000       0.91020000
H       -0.60830000       1.93380000      -0.86130000
H        1.72720000       2.78970000      -0.53250000
H        3.02740000       2.01710000       1.23360000
H        3.20840000       0.59920000      -0.65340000
H       -0.50560000      -3.06380000       0.09310000
