18
Properties=species:S:1:pos:R:3 gdb_32774=T pbc="F F F"
N       -0.40300000       1.41380000      -0.35230000
C       -0.19840000       0.04820000      -0.11460000
C       -1.11840000      -0.96740000      -0.11220000
C       -2.60680000      -1.05500000      -0.22090000
C       -3.23030000      -0.36110000      -1.43230000
O       -3.21930000       1.04890000      -1.20000000
O       -0.46760000      -2.17070000       0.06990000
C        0.85070000      -1.90190000       0.20180000
C        1.08340000      -0.56980000       0.09380000
H        0.07230000       2.00560000       0.31680000
H       -1.38880000       1.64450000      -0.41370000
H       -2.86660000      -2.11770000      -0.25930000
H       -3.09900000      -0.64560000       0.67330000
H       -2.66940000      -0.61540000      -2.34150000
H       -4.26650000      -0.70880000      -1.55790000
H       -3.39500000       1.49590000      -2.03310000
H        1.49240000      -2.75400000       0.35740000
H        2.03980000      -0.07170000       0.13940000
