14
Properties=species:S:1:pos:R:3 gdb_131568=T pbc="F F F"
O        0.34940000       0.69910000       1.00130000
C       -0.05790000       0.18620000      -0.25940000
C       -1.40930000      -0.34730000      -0.15700000
C       -2.52930000      -0.79100000      -0.09680000
C       -3.83220000      -1.31230000      -0.01910000
C       -5.05750000      -0.88850000      -0.50540000
N       -6.01240000      -1.78070000      -0.14170000
N       -5.46110000      -2.74200000       0.54810000
N       -4.15130000      -2.47190000       0.62550000
H        1.24070000       1.04790000       0.89620000
H       -0.04810000       0.96720000      -1.03690000
H        0.61590000      -0.61510000      -0.60470000
H       -5.28320000      -0.00790000      -1.08350000
H       -3.53580000      -3.09300000       1.12760000
