19
Properties=species:S:1:pos:R:3 gdb_92858=T pbc="F F F"
C        0.01610000       1.48250000       0.12090000
C       -0.04680000      -0.04580000       0.04970000
C        0.83050000      -0.63690000      -1.11310000
N        2.11490000      -1.05200000      -0.51220000
C        1.87040000      -1.05750000       0.73290000
O        2.70410000      -1.31200000       1.75680000
C        1.94940000      -1.13830000       2.97520000
C        0.71400000      -0.30390000       2.57050000
N        0.59790000      -0.72260000       1.18530000
H        1.05310000       1.83150000       0.17050000
H       -0.44060000       1.90940000      -0.77730000
H       -0.52560000       1.87710000       0.98660000
H       -1.09010000      -0.36570000      -0.03590000
H        0.33570000      -1.50250000      -1.57230000
H        0.99510000       0.10250000      -1.90360000
H        1.65930000      -2.12510000       3.35180000
H        2.59170000      -0.64550000       3.70680000
H       -0.16600000      -0.56320000       3.16630000
H        0.90600000       0.77350000       2.68230000
