17
Properties=species:S:1:pos:R:3 gdb_34707=T pbc="F F F"
C       -0.04160000      -1.27270000      -0.03740000
C        0.00820000      -0.07240000       0.02530000
C        0.04330000       1.37760000       0.08410000
C       -0.24360000       2.12790000       1.38570000
C        1.00900000       2.26830000       2.29060000
C        2.17640000       1.37280000       2.05260000
C        2.47330000       1.36530000       0.74910000
C        1.43560000       2.17240000       0.00800000
C        0.83220000       3.14000000       1.07820000
H       -0.08060000      -2.33260000      -0.08480000
H       -0.60840000       1.79360000      -0.69070000
H       -1.23040000       2.27460000       1.80800000
H        0.80080000       2.67330000       3.27430000
H        2.65710000       0.79280000       2.83000000
H        3.21370000       0.74700000       0.25840000
H        1.69950000       2.54580000      -0.97960000
H        0.80580000       4.22240000       1.06080000
