21
Properties=species:S:1:pos:R:3 gdb_98438=T pbc="F F F"
C       -0.36280000       1.49260000      -0.10100000
C       -0.00650000       0.00720000      -0.08250000
C        0.78890000      -0.43660000      -1.30660000
O        1.30150000       0.36840000      -2.05110000
C        0.88820000      -1.94110000      -1.55810000
C        1.45740000      -2.70170000      -0.35880000
C       -0.42110000      -2.54920000      -2.14940000
O        0.24220000      -2.91180000      -3.36730000
C        1.48880000      -2.32440000      -2.92910000
H        0.53740000       2.10370000      -0.19390000
H       -1.00660000       1.73050000      -0.95240000
H       -0.88670000       1.77580000       0.81600000
H        0.60110000      -0.22980000       0.80200000
H       -0.90180000      -0.62120000       0.01040000
H        0.83020000      -2.58900000       0.53060000
H        1.51850000      -3.76980000      -0.58910000
H        2.46580000      -2.35320000      -0.11010000
H       -0.81230000      -3.42010000      -1.60670000
H       -1.24180000      -1.83940000      -2.32080000
H        1.78560000      -1.47050000      -3.54420000
H        2.29880000      -3.06290000      -2.89630000
