20
Properties=species:S:1:pos:R:3 gdb_115759=T pbc="F F F"
O       -0.07550000       1.47020000      -0.32070000
C        0.03970000       0.10360000       0.04380000
C       -1.36420000      -0.48240000       0.03000000
C       -1.94620000      -0.64510000      -1.40420000
C       -1.58140000      -2.15450000      -1.35950000
C       -1.45590000      -2.03510000       0.18280000
C       -0.33930000      -2.79960000       0.91000000
C       -0.54170000      -4.24660000       0.84970000
N       -0.72030000      -5.38680000       0.78900000
H        0.80640000       1.85280000      -0.34670000
H        0.69010000      -0.43820000      -0.66310000
H        0.48550000      -0.00320000       1.04650000
H       -1.97590000       0.09210000       0.73130000
H       -3.02610000      -0.48160000      -1.43040000
H       -1.48290000      -0.03280000      -2.18000000
H       -2.30890000      -2.87060000      -1.74600000
H       -0.61570000      -2.35950000      -1.83210000
H       -2.41000000      -2.29220000       0.65240000
H        0.63880000      -2.57360000       0.47060000
H       -0.29060000      -2.50170000       1.96430000
