20
Properties=species:S:1:pos:R:3 gdb_120586=T pbc="F F F"
C        0.06880000       1.41520000      -0.09980000
C        0.44750000      -0.05420000      -0.08310000
O        0.22030000      -0.58920000      -1.38730000
C        0.47750000      -1.94200000      -1.48130000
C        0.64330000      -2.51020000      -2.84440000
C        1.87520000      -2.40930000      -1.93930000
C        2.93860000      -1.37550000      -2.27080000
C        2.35350000      -3.63370000      -1.35490000
N        2.73340000      -4.61400000      -0.86990000
H        0.68090000       1.96360000      -0.82130000
H       -0.98180000       1.53830000      -0.37680000
H        0.22200000       1.85550000       0.88970000
H        1.50230000      -0.18740000       0.19750000
H       -0.15970000      -0.60750000       0.64960000
H       -0.00550000      -2.55770000      -0.72240000
H        0.23350000      -3.49060000      -3.05430000
H        0.61810000      -1.80860000      -3.67080000
H        2.46020000      -0.43710000      -2.55830000
H        3.58320000      -1.18470000      -1.40800000
H        3.57010000      -1.71550000      -3.09670000
