16
Properties=species:S:1:pos:R:3 gdb_54942=T pbc="F F F"
O       -0.18200000      -0.03520000       0.52410000
C        0.03970000       1.20250000       0.06180000
O        1.09050000       1.56660000      -0.39270000
C       -1.19160000       2.10430000       0.13230000
C       -1.99600000       2.24420000      -1.19370000
C       -3.23680000       1.79520000      -0.35880000
N       -2.36190000       1.44760000       0.77930000
H       -1.11810000      -0.03740000       0.82100000
H       -2.67390000       1.89420000       1.63900000
C       -4.19910000       2.92220000      -0.06870000
O       -4.28260000       3.46150000       1.00600000
H       -0.90010000       3.06560000       0.56300000
H       -2.03680000       3.24640000      -1.62140000
H       -1.70630000       1.53510000      -1.96920000
H       -3.80380000       0.95210000      -0.77460000
H       -4.83160000       3.23310000      -0.92880000
