18
Properties=species:S:1:pos:R:3 gdb_95183=T pbc="F F F"
C        0.08030000       1.55850000      -0.02040000
C        0.03080000       0.03140000      -0.03580000
N        0.69460000      -0.49630000      -1.22220000
C        0.70080000      -1.94630000      -1.32200000
C        1.44690000      -2.53660000      -0.14320000
O        2.57580000      -1.81020000       0.30790000
C        1.41310000      -1.82780000       1.15220000
C        0.61540000      -0.55630000       1.25620000
O        0.35310000      -0.08440000       2.33890000
H        1.11450000       1.90170000      -0.11070000
H       -0.49560000       1.97180000      -0.85450000
H       -0.33930000       1.93200000       0.91500000
H       -1.03590000      -0.28070000       0.01610000
H        0.29110000      -0.08520000      -2.05510000
H       -0.30750000      -2.40690000      -1.34310000
H        1.20470000      -2.22970000      -2.25290000
H        1.55450000      -3.62110000      -0.13250000
H        1.53400000      -2.35780000       2.09500000
