15
Properties=species:S:1:pos:R:3 gdb_2289=T pbc="F F F"
C        0.07950000       1.54000000      -0.09200000
C        0.05800000       0.08580000      -0.02780000
C        0.04390000      -1.11790000       0.02160000
C        0.00970000      -2.56240000       0.09710000
C        0.05300000      -3.24700000       1.49330000
O       -1.10210000      -4.04710000       1.18120000
C       -1.35920000      -3.29260000      -0.01720000
H        0.90680000       1.89990000      -0.71360000
H       -0.85020000       1.93270000      -0.51850000
H        0.19740000       1.98060000       0.90420000
H        0.74780000      -3.00280000      -0.57960000
H        0.93470000      -3.85860000       1.71260000
H       -0.13240000      -2.55660000       2.32560000
H       -2.22250000      -2.62400000       0.08990000
H       -1.49980000      -3.93710000      -0.89160000
