19
Properties=species:S:1:pos:R:3 gdb_59933=T pbc="F F F"
C        0.31770000       0.54530000       0.71720000
C       -0.61590000       0.10540000      -0.41210000
O       -1.33530000       1.21730000      -0.94220000
C        0.11460000      -0.49380000      -1.61590000
C        0.88130000      -1.81300000      -1.32190000
C       -0.00240000      -2.86750000      -0.80880000
C       -0.73180000      -3.72050000      -0.38080000
C        1.59910000      -2.26370000      -2.51930000
C        2.18760000      -2.60400000      -3.50900000
H        0.84360000      -0.30430000       1.16440000
H        1.05630000       1.26490000       0.34880000
H       -0.25430000       1.02550000       1.51950000
H       -1.31830000      -0.64680000      -0.02170000
H       -1.82230000       1.62570000      -0.21960000
H       -0.61790000      -0.68040000      -2.40550000
H        0.83110000       0.23800000      -2.00290000
H        1.63320000      -1.60300000      -0.54800000
H       -1.37120000      -4.48250000      -0.00860000
H        2.70860000      -2.91610000      -4.38010000
