16
Properties=species:S:1:pos:R:3 gdb_20265=T pbc="F F F"
C       -0.05490000       1.56200000       0.03730000
C        1.49580000       1.46170000       0.02010000
C        1.84830000       0.70610000       1.30920000
C        2.17230000      -0.71530000       0.90170000
O        2.26650000      -0.80180000      -0.49830000
C        1.31880000       0.16710000      -0.85490000
C        0.01510000       0.00970000       0.01010000
C        0.75470000      -0.36620000       1.30190000
H       -0.52540000       2.03580000       0.90220000
H       -0.46070000       1.98210000      -0.88800000
H        2.13890000       2.28920000      -0.27660000
H        2.23810000       1.18080000       2.19890000
H        2.82600000      -1.38570000       1.44310000
H        1.22760000       0.26740000      -1.93340000
H       -0.82290000      -0.61500000      -0.29640000
H        0.26650000      -0.75260000       2.18570000
