15
Properties=species:S:1:pos:R:3 gdb_27923=T pbc="F F F"
C        0.13330000       1.46280000       0.06340000
C       -0.05020000      -0.00660000       0.00070000
C       -1.10760000      -0.86330000      -0.10940000
C       -2.51830000      -0.49600000      -0.20760000
O       -3.44060000      -1.27200000      -0.29870000
N       -0.64790000      -2.18620000      -0.10600000
C        0.63190000      -2.06260000      -0.00660000
N        1.59020000      -3.03770000      -0.03120000
O        1.08730000      -0.77690000       0.06660000
H        0.76230000       1.81750000      -0.76110000
H       -0.83100000       1.96940000       0.00170000
H        0.61970000       1.76130000       0.99910000
H       -2.69410000       0.60370000      -0.19130000
H        1.22320000      -3.96000000       0.15020000
H        2.43940000      -2.82500000       0.47040000
