19
Properties=species:S:1:pos:R:3 gdb_117097=T pbc="F F F"
C       -0.04350000       1.53800000      -0.06290000
C       -0.01060000       0.00930000      -0.00010000
C        0.66070000      -0.61110000      -1.22680000
C        0.73410000      -2.11800000      -1.19190000
O        0.34610000      -2.79260000      -0.26530000
C        1.36470000      -2.85570000      -2.40690000
O        1.46800000      -4.22420000      -2.12700000
C        0.57270000      -2.58540000      -3.61300000
C       -0.08400000      -2.36360000      -4.59490000
H        0.96740000       1.95780000      -0.11560000
H       -0.59310000       1.89000000      -0.94300000
H       -0.53080000       1.95670000       0.82240000
H        0.51550000      -0.32150000       0.90150000
H       -1.02830000      -0.38630000       0.08690000
H        0.14940000      -0.32290000      -2.15420000
H        1.68890000      -0.23710000      -1.34420000
H        2.37320000      -2.43420000      -2.55170000
H        0.97400000      -4.34390000      -1.29760000
H       -0.65720000      -2.17900000      -5.47010000
