14
Properties=species:S:1:pos:R:3 gdb_34793=T pbc="F F F"
N       -0.11820000      -1.22470000      -0.06440000
C       -0.06850000      -0.06990000      -0.04470000
C       -0.00980000       1.38180000      -0.00120000
C        0.10730000       2.13080000       1.37210000
C        1.55930000       1.60800000       1.51440000
C        1.37970000       2.12370000       0.05760000
N        0.69670000       3.33610000       0.66300000
C        2.35440000       2.22170000      -1.00090000
N        3.12600000       2.29120000      -1.85830000
H       -0.71880000       1.82370000      -0.70570000
H       -0.66290000       2.22500000       2.13420000
H        2.21370000       2.22210000       2.12990000
H        1.70430000       0.53700000       1.64530000
H        0.02060000       3.72000000      -0.00570000
