20
Properties=species:S:1:pos:R:3 gdb_30160=T pbc="F F F"
C       -0.77200000       1.23310000      -0.04600000
C        0.18560000       0.04460000       0.00840000
C        1.20110000      -0.00660000      -1.18570000
C        2.38090000      -0.63510000      -0.51980000
C        2.31700000      -0.65760000       0.84850000
C        1.03530000      -0.03290000       1.32360000
C        3.53370000      -1.21480000       1.33010000
C        4.29480000      -1.51320000       0.21840000
N        3.58710000      -1.14810000      -0.91080000
H       -0.22370000       2.18130000      -0.00020000
H       -1.36080000       1.23290000      -0.97000000
H       -1.47390000       1.21490000       0.79480000
H       -0.40270000      -0.87940000      -0.04310000
H        0.79500000      -0.56990000      -2.03470000
H        1.42360000       1.00520000      -1.55740000
H        1.20040000       0.97250000       1.73820000
H        0.51140000      -0.60400000       2.09870000
H        3.82960000      -1.38850000       2.35380000
H        5.26990000      -1.96610000       0.13300000
H        3.90490000      -1.27620000      -1.85530000
