17
Properties=species:S:1:pos:R:3 gdb_1342=T pbc="F F F"
C       -0.33470000       1.09050000      -0.10980000
O        0.56120000       0.01620000       0.10660000
C        0.92580000      -0.62630000      -1.07220000
C        1.51780000      -2.00160000      -0.93690000
C        0.14840000      -1.81610000      -1.57150000
C       -1.08210000      -2.29660000      -0.83930000
O        0.07880000      -1.88910000      -2.97310000
H        0.11070000       1.85920000      -0.75900000
H       -1.27480000       0.75370000      -0.56780000
H       -0.54860000       1.53200000       0.86640000
H        1.33970000       0.02460000      -1.84390000
H        2.35060000      -2.25500000      -1.58320000
H        1.55650000      -2.41870000       0.06380000
H       -1.01950000      -2.05010000       0.22320000
H       -1.97930000      -1.82780000      -1.25610000
H       -1.19600000      -3.38370000      -0.93180000
H        0.12730000      -2.81890000      -3.22290000
