17
Properties=species:S:1:pos:R:3 gdb_67342=T pbc="F F F"
C       -0.06220000       1.53100000       0.03610000
C       -0.02700000       0.02750000       0.05700000
C        1.08860000      -0.81170000      -0.68710000
N        2.06580000      -0.44450000       0.39620000
C        0.79060000      -0.79460000       1.12110000
C        0.49250000      -1.98380000       0.16750000
N       -0.94990000      -2.06230000       0.01170000
C       -1.33030000      -0.73740000      -0.18660000
O       -2.41260000      -0.31360000      -0.50850000
H        0.94170000       1.93680000       0.17760000
H       -0.46510000       1.89050000      -0.91530000
H       -0.71450000       1.91160000       0.82830000
H        1.34810000      -0.78230000      -1.74790000
H        2.74830000      -1.20100000       0.51500000
H        0.69360000      -0.75180000       2.20780000
H        1.02030000      -2.93070000       0.27490000
H       -1.40930000      -2.79960000      -0.50200000
