11
Properties=species:S:1:pos:R:3 gdb_4382=T pbc="F F F"
O        0.12280000       1.27460000      -0.03670000
C        0.08150000      -0.05570000      -0.03060000
N       -0.03820000      -0.64660000      -1.21790000
C       -0.07360000      -1.97530000      -1.14120000
N       -0.00340000      -2.72060000      -0.04030000
C        0.11410000      -2.00070000       1.07390000
O        0.18940000      -2.68620000       2.21230000
N        0.16270000      -0.66910000       1.15220000
H        0.21010000       1.55860000       0.88410000
H       -0.17060000      -2.51140000      -2.08250000
H        0.27060000      -2.03880000       2.92670000
