23
Properties=species:S:1:pos:R:3 gdb_109213=T pbc="F F F"
C       -0.25180000       1.51530000      -0.04710000
C        0.09210000       0.01640000       0.01680000
C        0.79150000      -0.48520000      -1.21310000
C        2.03850000      -0.96490000      -1.29370000
C        2.42790000      -1.35140000      -2.70310000
C        1.14740000      -1.12360000      -3.51770000
C        1.28010000      -0.65210000      -4.94600000
C       -0.05170000      -1.94520000      -3.11550000
C        0.12330000      -0.54400000      -2.55290000
H        0.65440000       2.11820000      -0.16200000
H       -0.91100000       1.74040000      -0.89160000
H       -0.76170000       1.83670000       0.86640000
H        0.72130000      -0.17410000       0.89350000
H       -0.83660000      -0.55180000       0.16640000
H        2.70750000      -1.08960000      -0.44840000
H        3.24870000      -0.72230000      -3.07830000
H        2.78430000      -2.38800000      -2.77190000
H        1.77430000      -1.40680000      -5.57000000
H        0.30120000      -0.44790000      -5.39170000
H        1.87400000       0.26740000      -5.00770000
H       -0.81860000      -2.08920000      -3.87080000
H        0.07680000      -2.78100000      -2.43430000
H       -0.57780000       0.22780000      -2.85470000
