21
Properties=species:S:1:pos:R:3 gdb_72656=T pbc="F F F"
C       -0.49170000       1.38260000       0.14080000
C        0.08060000      -0.00820000      -0.02850000
C        0.97290000      -0.23180000      -1.25190000
C        1.79250000      -1.48730000      -0.89720000
C        2.07870000      -1.32120000       0.60910000
C        0.80910000      -0.67620000       1.18370000
O        1.02710000       0.17050000       2.28650000
C       -0.43230000      -1.59250000       1.24610000
O       -0.96070000      -1.03210000       0.02840000
H        0.30760000       2.12830000       0.18860000
H       -1.14320000       1.62470000      -0.70530000
H       -1.07720000       1.45200000       1.06050000
H        0.37950000      -0.34290000      -2.16390000
H        1.63400000       0.63380000      -1.38300000
H        1.18770000      -2.38290000      -1.07170000
H        2.70560000      -1.58790000      -1.48940000
H        2.34330000      -2.26190000       1.10480000
H        2.90600000      -0.61680000       0.75960000
H        1.57640000      -0.29540000       2.92530000
H       -0.26410000      -2.67420000       1.16450000
H       -1.07390000      -1.38390000       2.11190000
