16
Properties=species:S:1:pos:R:3 gdb_1958=T pbc="F F F"
C        0.22080000       1.53800000       0.06050000
C       -0.08430000       0.04980000      -0.00420000
C        0.82080000      -0.80840000      -0.94630000
N        1.21890000      -1.59160000       0.22460000
C        0.42970000      -0.82300000       1.18460000
C        2.08950000      -2.60270000       0.42230000
O        2.33710000      -3.09750000       1.50400000
H        1.28410000       1.71400000       0.25780000
H       -0.03310000       2.03540000      -0.88170000
H       -0.35180000       2.02210000       0.85850000
H       -1.14600000      -0.11310000      -0.20280000
H        0.29540000      -1.38250000      -1.71750000
H        1.64340000      -0.25400000      -1.41500000
H        1.03950000      -0.29060000       1.92370000
H       -0.32340000      -1.41580000       1.71310000
H        2.55610000      -2.93830000      -0.52790000
