18
Properties=species:S:1:pos:R:3 gdb_8284=T pbc="F F F"
C       -0.13120000       1.52400000      -0.08670000
N       -0.05010000       0.09310000       0.09290000
C       -1.22000000      -0.62200000       0.63170000
C       -0.24100000      -1.56070000       1.38320000
C        0.80840000      -0.44020000       1.16480000
N       -0.55720000      -1.96770000       2.72530000
C       -0.55070000      -3.26610000       3.14130000
O       -0.28350000      -4.22420000       2.44950000
H        0.83850000       1.91320000      -0.41470000
H       -0.86670000       1.76040000      -0.86280000
H       -0.42210000       2.06260000       0.83650000
H       -1.81330000      -0.01600000       1.34110000
H       -1.89420000      -1.05570000      -0.11390000
H       -0.01240000      -2.46470000       0.82160000
H        1.82200000      -0.72250000       0.86280000
H        0.86970000       0.22450000       2.04620000
H       -0.79780000      -1.25820000       3.40020000
H       -0.82440000      -3.35060000       4.21200000
