19
Properties=species:S:1:pos:R:3 gdb_65789=T pbc="F F F"
C       -0.16630000       1.54480000       0.08710000
C        0.02420000       0.03770000      -0.05880000
C        0.99160000      -0.35520000      -1.21900000
N        2.15820000      -0.97560000      -0.57090000
C        1.90870000      -0.96300000       0.66920000
O        0.74430000      -0.43710000       1.12510000
C       -1.31000000      -0.68480000      -0.13520000
C       -1.46880000      -2.08850000       0.30690000
N       -2.08070000      -0.98510000       1.07720000
H        0.80200000       2.04610000       0.17180000
H       -0.68470000       1.94350000      -0.79080000
H       -0.76290000       1.78010000       0.97260000
H        0.53260000      -1.06660000      -1.91350000
H        1.31160000       0.51560000      -1.80140000
H        2.56060000      -1.34500000       1.44740000
H       -1.92190000      -0.33540000      -0.96600000
H       -2.17330000      -2.73980000      -0.20210000
H       -0.60570000      -2.59020000       0.73300000
H       -1.49170000      -0.80180000       1.88770000
