18
Properties=species:S:1:pos:R:3 gdb_17335=T pbc="F F F"
C       -0.03650000       1.51620000       0.01190000
C        0.10240000       0.01680000      -0.02520000
N       -0.56710000      -0.82400000       0.99590000
C        0.91060000      -0.78060000       0.93730000
C        1.53210000      -1.94820000       0.18340000
N        1.11740000      -1.85360000      -1.23810000
C       -0.31330000      -2.05100000      -1.51460000
C        0.22970000      -0.67640000      -1.37050000
H        0.73980000       1.99820000      -0.59210000
H       -1.00860000       1.83420000      -0.38200000
H        0.05180000       1.89470000       1.03550000
H       -0.89180000      -0.22940000       1.75630000
H        1.45530000      -0.31640000       1.75540000
H        2.62460000      -1.86920000       0.21860000
H        1.25020000      -2.91910000       0.60330000
H       -0.52240000      -2.45010000      -2.50420000
H       -0.95690000      -2.40550000      -0.71640000
H        0.38740000      -0.03830000      -2.23650000
