17
Properties=species:S:1:pos:R:3 gdb_106456=T pbc="F F F"
O        0.01630000       1.35560000      -0.06650000
C        0.00960000      -0.05470000       0.01790000
C       -1.39360000      -0.57500000       0.13910000
C       -2.52140000      -0.17020000       1.12090000
C       -3.12010000      -1.01620000      -0.02040000
O       -2.31250000      -0.24530000      -0.99350000
C       -1.94950000      -2.04020000       0.12490000
C       -1.62890000      -2.90790000      -1.05770000
O       -1.31320000      -4.06880000      -0.95600000
H       -0.57990000       1.59600000      -0.78570000
H        0.49610000      -0.52440000      -0.85160000
H        0.58240000      -0.32880000       0.91000000
H       -2.50100000      -0.59710000       2.12570000
H       -2.78710000       0.88630000       1.10270000
H       -4.16010000      -1.21200000      -0.27840000
H       -1.88770000      -2.60300000       1.05870000
H       -1.70590000      -2.40730000      -2.04280000
