17
Properties=species:S:1:pos:R:3 gdb_16279=T pbc="F F F"
C       -0.06080000       1.56520000       0.06860000
C        0.04720000       0.05220000      -0.02890000
C        1.16500000      -0.57810000      -0.94120000
C        1.71920000      -1.30350000       0.28570000
N        2.09170000      -0.25600000       1.25340000
C        0.66660000      -0.70230000       1.17280000
C       -0.01210000      -1.23630000       2.29980000
C       -0.61460000      -1.67090000       3.24770000
H        0.89950000       1.99790000       0.36050000
H       -0.35690000       1.99710000      -0.89350000
H       -0.81100000       1.85780000       0.81130000
H       -0.92130000      -0.39380000      -0.27130000
H        0.75930000      -1.24900000      -1.70080000
H        1.86080000       0.12600000      -1.40440000
H        2.16080000      -2.29140000       0.33750000
H        2.49260000      -0.71830000       2.06950000
H       -1.14180000      -2.05890000       4.08370000
