18
Properties=species:S:1:pos:R:3 gdb_65399=T pbc="F F F"
C        0.09650000       1.69670000       0.29010000
C       -0.04810000       0.20630000       0.09450000
O        0.84650000      -0.40060000      -0.83030000
C        1.01230000      -0.75180000       0.54560000
C        2.25820000      -0.30460000       1.23960000
O        3.00180000       0.55900000       0.84870000
C       -1.46180000      -0.30920000       0.02470000
C       -2.15480000      -0.34760000      -1.28800000
N       -1.74900000      -1.59520000      -0.61430000
H        1.14680000       1.98580000       0.32710000
H       -0.38550000       2.22050000      -0.54130000
H       -0.39890000       2.01030000       1.21480000
H        0.68840000      -1.76040000       0.80650000
H        2.44540000      -0.84590000       2.19420000
H       -2.04930000      -0.10860000       0.91850000
H       -3.22560000      -0.17560000      -1.34220000
H       -1.59060000      -0.03490000      -2.16250000
H       -0.89330000      -1.92310000      -1.06180000
