25
Properties=species:S:1:pos:R:3 gdb_113703=T pbc="F F F"
C       -0.96140000       1.60060000       0.40880000
C       -0.32460000       0.22470000       0.17360000
C       -0.41370000      -0.65580000       1.40810000
C       -1.57620000      -1.60120000       1.61810000
C       -0.18240000      -2.15250000       1.46360000
C        0.21390000      -3.06330000       0.29740000
C        1.73190000      -3.00500000       0.07450000
C       -0.23290000      -4.49760000       0.60440000
O       -0.46850000      -2.71650000      -0.91490000
H       -0.46290000       2.13160000       1.22740000
H       -0.89480000       2.22850000      -0.48520000
H       -2.01890000       1.50090000       0.67430000
H       -0.82830000      -0.26000000      -0.66750000
H        0.72650000       0.36260000      -0.11730000
H       -0.07660000      -0.13820000       2.30520000
H       -2.06480000      -1.64960000       2.58530000
H       -2.23620000      -1.74030000       0.76750000
H        0.28740000      -2.48120000       2.38880000
H        2.27570000      -3.31300000       0.97300000
H        2.02280000      -3.66590000      -0.74790000
H        2.05040000      -1.98440000      -0.16770000
H       -1.32060000      -4.53660000       0.70660000
H        0.06120000      -5.16700000      -0.20920000
H        0.21540000      -4.85830000       1.53490000
H        0.01890000      -2.00200000      -1.33520000
