17
Properties=species:S:1:pos:R:3 gdb_32096=T pbc="F F F"
C        0.02070000       1.51360000      -0.16300000
C       -0.01630000       0.00080000       0.10800000
C       -1.41290000      -0.56120000       0.04980000
C       -1.82580000      -1.44100000      -0.94820000
N       -3.07240000      -1.92700000      -1.00400000
C       -3.91760000      -1.53840000      -0.06220000
C       -3.50440000      -0.65190000       0.94570000
O       -4.38650000      -0.27770000       1.89140000
N       -2.27460000      -0.16930000       1.00420000
H        1.03980000       1.89940000      -0.06730000
H       -0.33610000       1.74150000      -1.17240000
H       -0.61760000       2.04340000       0.54910000
H        0.61600000      -0.52730000      -0.61310000
H        0.39520000      -0.19670000       1.10470000
H       -1.13630000      -1.76520000      -1.72210000
H       -4.93450000      -1.91800000      -0.08280000
H       -3.91300000       0.32430000       2.48290000
