17
Properties=species:S:1:pos:R:3 gdb_130396=T pbc="F F F"
N       -0.64010000       1.12880000       0.22740000
C        0.32170000       0.06490000      -0.10330000
C        0.91310000      -0.48840000       1.15060000
C        0.42000000      -0.63890000       2.41040000
N       -0.84920000      -0.36360000       2.94320000
C        1.50100000      -1.25730000       3.11360000
N        1.49370000      -1.55890000       4.46990000
N        2.54720000      -1.45610000       2.34460000
O        2.17980000      -0.96490000       1.08880000
H       -0.13970000       1.95040000       0.55360000
H       -1.14620000       1.40660000      -0.60720000
H       -0.22990000      -0.71930000      -0.63950000
H        1.14240000       0.37810000      -0.76680000
H       -1.37700000       0.20700000       2.28850000
H       -0.77910000       0.12380000       3.83080000
H        0.62610000      -1.99200000       4.76300000
H        2.28820000      -2.12550000       4.73950000
