14
Properties=species:S:1:pos:R:3 gdb_28077=T pbc="F F F"
N       -0.03710000       1.35190000       0.14300000
C       -0.05150000      -0.01400000       0.04910000
N       -1.09080000      -0.79620000       0.03330000
C       -0.52840000      -2.06670000       0.01010000
N       -1.37880000      -3.16670000      -0.00820000
C       -0.96380000      -4.46560000      -0.04000000
O        0.19660000      -4.81530000      -0.05850000
C        0.82220000      -1.99530000       0.00550000
O        1.13750000      -0.63720000       0.03190000
H        0.78080000       1.79690000      -0.24570000
H       -0.90760000       1.78320000      -0.12820000
H       -2.36520000      -2.95640000       0.00720000
H       -1.81670000      -5.16960000      -0.04740000
H        1.63000000      -2.69790000      -0.01620000
