21
Properties=species:S:1:pos:R:3 gdb_39480=T pbc="F F F"
C       -0.13110000       1.29440000      -0.48700000
C        1.28560000       0.91780000      -0.14320000
C        1.99140000       1.42680000       1.11340000
O        2.22820000       0.42550000       2.08870000
C        1.44830000       0.53910000       3.26050000
C       -0.07100000       0.51350000       3.00790000
C       -0.52390000      -0.70020000       2.24260000
C       -0.37310000      -0.94900000       0.93910000
C        0.20500000      -0.15590000      -0.18070000
H       -0.69690000       1.83460000       0.26490000
H       -0.38310000       1.56640000      -1.50660000
H        1.95610000       0.84690000      -0.99490000
H        2.97160000       1.81500000       0.81090000
H        1.44660000       2.27220000       1.55280000
H        1.73950000      -0.31280000       3.88380000
H        1.70380000       1.46070000       3.81050000
H       -0.56850000       0.55030000       3.98380000
H       -0.36200000       1.43550000       2.49310000
H       -0.99560000      -1.48020000       2.83570000
H       -0.75370000      -1.90990000       0.59650000
H        0.28690000      -0.76570000      -1.07560000
