16
Properties=species:S:1:pos:R:3 gdb_48160=T pbc="F F F"
O       -0.69800000       1.29620000      -0.39280000
C        0.31540000       0.90080000       0.12350000
C        1.56470000       1.76870000       0.30540000
O        2.56030000       1.31060000       0.83530000
N        1.40460000       3.02470000      -0.17590000
C        2.42390000       4.03360000      -0.12860000
C        2.75690000       4.81220000      -1.42430000
O        2.60340000       6.07190000      -0.74360000
C        2.05770000       5.43190000       0.42530000
H        0.44520000      -0.12600000       0.51710000
H        0.50150000       3.22690000      -0.58520000
H        3.29410000       3.58600000       0.35030000
H        3.76130000       4.68130000      -1.84040000
H        2.01370000       4.67700000      -2.22340000
H        0.97510000       5.59750000       0.52400000
H        2.55640000       5.74920000       1.34710000
