23
Properties=species:S:1:pos:R:3 gdb_58354=T pbc="F F F"
C        0.01010000       1.55760000      -0.02420000
C        0.05450000       0.02190000      -0.02020000
C        0.74460000      -0.49950000      -1.28750000
C        0.72150000      -0.51090000       1.27250000
C       -0.04400000      -0.04040000       2.49710000
O        0.42780000       0.56140000       3.42740000
C        0.77920000      -2.03420000       1.34190000
C        2.02960000      -2.78330000       0.94890000
C        1.62560000      -2.70640000       2.39740000
H        1.02340000       1.97580000      -0.02280000
H       -0.50240000       1.92870000      -0.91720000
H       -0.51070000       1.95870000       0.85110000
H       -0.98220000      -0.34780000      -0.02550000
H        1.79120000      -0.17540000      -1.32370000
H        0.73060000      -1.59050000      -1.34310000
H        0.24670000      -0.10850000      -2.18080000
H        1.73760000      -0.10590000       1.35940000
H       -1.12320000      -0.33100000       2.49290000
H       -0.16310000      -2.52410000       1.10680000
H        1.91740000      -3.72920000       0.43020000
H        2.88670000      -2.20090000       0.62840000
H        2.20440000      -2.06570000       3.05440000
H        1.23930000      -3.59970000       2.87510000
