19
Properties=species:S:1:pos:R:3 gdb_85186=T pbc="F F F"
O        0.01830000       1.37770000      -0.19780000
C        0.00160000      -0.01880000       0.01480000
C        0.24920000      -0.40860000       1.50480000
C       -1.28240000      -0.46930000       1.66680000
O       -2.02220000      -0.42220000       2.60380000
C       -1.48610000      -0.48820000       0.13460000
C       -2.59140000       0.30810000      -0.49500000
C       -3.13500000      -0.07110000      -1.85260000
C       -3.97050000      -0.29070000      -0.61780000
H        0.92050000       1.69030000      -0.07760000
H        0.60890000      -0.54780000      -0.72870000
H        0.70710000      -1.39570000       1.62890000
H        0.78070000       0.31720000       2.12540000
H       -1.54860000      -1.54180000      -0.17110000
H       -2.54380000       1.36920000      -0.27940000
H       -3.41240000       0.72810000      -2.53060000
H       -2.71480000      -0.94250000      -2.34450000
H       -4.11480000      -1.30920000      -0.27360000
H       -4.82250000       0.35700000      -0.44580000
