17
Properties=species:S:1:pos:R:3 gdb_27541=T pbc="F F F"
N        0.16770000       1.43590000       0.00800000
C       -0.01750000       0.03730000      -0.01130000
C       -1.13690000      -0.76500000       0.01650000
C       -0.69540000      -2.11980000      -0.10210000
C        0.67790000      -2.09800000      -0.18240000
N        1.07620000      -0.78250000      -0.13450000
C       -1.54270000      -3.32950000      -0.12300000
C       -1.55510000      -4.27380000      -1.25790000
O       -0.86660000      -4.59030000      -0.04890000
H        0.44630000       1.77520000       0.92490000
H       -0.69070000       1.91080000      -0.24310000
H       -2.15600000      -0.42380000       0.12190000
H        1.38520000      -2.90770000      -0.23920000
H        2.01730000      -0.44450000      -0.23690000
H       -2.45050000      -3.27950000       0.48070000
H       -2.44230000      -4.87380000      -1.46140000
H       -0.91920000      -4.06390000      -2.11640000
