16
Properties=species:S:1:pos:R:3 gdb_16496=T pbc="F F F"
O       -0.02380000       1.48720000       0.12500000
C       -0.00150000       0.07770000       0.08950000
C        0.21020000      -0.73670000       1.40830000
C       -0.84690000      -0.15840000       2.38820000
C       -1.88240000      -0.76490000       1.44460000
C       -0.87700000      -1.74690000       0.87000000
C       -1.34950000      -0.60590000       0.00790000
O       -2.16870000      -0.71090000      -1.09520000
H        0.88140000       1.81070000       0.08290000
H        0.65800000      -0.29950000      -0.70400000
H        1.21400000      -0.99580000       1.73840000
H       -0.82740000      -0.67430000       3.35220000
H       -0.84200000       0.92600000       2.53480000
H       -2.94120000      -0.93190000       1.59800000
H       -0.89660000      -2.81430000       0.71350000
H       -2.69890000       0.09200000      -1.14990000
