23
Properties=species:S:1:pos:R:3 gdb_119243=T pbc="F F F"
C        2.29120000       1.47040000      -0.33590000
C        2.17310000      -0.04750000      -0.49880000
C        0.88920000      -0.46360000      -1.23120000
C        0.77410000      -1.95680000      -1.51550000
C        0.75370000      -2.86610000      -0.29010000
C       -0.43040000      -2.57950000       0.60940000
O       -0.35780000      -2.30980000       1.78110000
C       -0.05880000      -2.37940000      -2.70640000
C        1.44570000      -2.48650000      -2.76080000
H        2.30490000       1.97460000      -1.30890000
H        1.44670000       1.87430000       0.23330000
H        3.20900000       1.74360000       0.19370000
H        3.04230000      -0.42990000      -1.04920000
H        2.20220000      -0.51860000       0.49090000
H        0.01990000      -0.13130000      -0.64590000
H        0.83190000       0.07620000      -2.18520000
H        0.66700000      -3.91030000      -0.62170000
H        1.66810000      -2.77970000       0.30400000
H       -1.41800000      -2.62950000       0.09390000
H       -0.63160000      -3.29840000      -2.63850000
H       -0.53930000      -1.60360000      -3.29290000
H        1.98420000      -1.77890000      -3.38240000
H        1.89120000      -3.47510000      -2.72810000
