19
Properties=species:S:1:pos:R:3 gdb_96962=T pbc="F F F"
C       -0.28760000       1.45180000      -0.19140000
N       -0.21720000      -0.00260000      -0.14540000
C        0.64780000      -0.58770000      -0.85070000
C        0.77760000      -2.11570000      -0.85250000
N        1.82910000      -2.62250000      -1.74710000
C        3.05980000      -1.77780000      -1.50240000
C        2.43980000      -0.70560000      -2.41380000
C        1.68600000      -1.88110000      -3.05780000
O        1.52390000       0.09880000      -1.65660000
H        0.60890000       1.91150000       0.24510000
H       -0.37560000       1.83240000      -1.21720000
H       -1.15560000       1.78580000       0.38180000
H        0.98140000      -2.45260000       0.16850000
H       -0.18370000      -2.54900000      -1.14450000
H        3.25170000      -1.50930000      -0.46020000
H        3.93950000      -2.26200000      -1.93440000
H        3.04860000      -0.01240000      -2.99750000
H        2.25630000      -2.38820000      -3.84040000
H        0.66080000      -1.70460000      -3.39370000
