18
Properties=species:S:1:pos:R:3 gdb_16249=T pbc="F F F"
C       -0.14310000       1.48410000      -0.06660000
C       -0.05480000      -0.03250000      -0.03000000
O        0.80910000      -0.50330000      -1.07640000
C        1.72740000      -1.41820000      -0.51000000
O        1.21430000      -1.81030000       0.74040000
C        0.55740000      -0.66000000       1.21890000
C        1.18210000       0.10190000       2.35960000
C       -0.07000000      -0.73910000       2.56270000
H        0.84290000       1.93450000       0.07460000
H       -0.53620000       1.80980000      -1.03320000
H       -0.81750000       1.85400000       0.71340000
H       -1.05320000      -0.46400000      -0.19600000
H        1.81620000      -2.30670000      -1.14430000
H        2.71340000      -0.93450000      -0.39610000
H        2.11190000      -0.29270000       2.75360000
H        1.08960000       1.18150000       2.39620000
H       -1.01470000      -0.22780000       2.71810000
H        0.03220000      -1.67620000       3.09830000
