24
Properties=species:S:1:pos:R:3 gdb_103925=T pbc="F F F"
C       -0.00260000       1.50140000       0.20380000
C       -0.09810000      -0.00460000      -0.06490000
C        0.68480000      -0.48960000      -1.28980000
C        0.15860000       0.09260000      -2.60220000
C        2.26240000      -0.39830000      -1.20470000
C        2.33380000      -1.92310000      -1.37770000
C        3.40080000      -2.70110000      -2.08300000
N        1.60460000      -2.47710000      -0.20670000
C        0.84880000      -2.02110000      -1.40240000
H        1.03950000       1.81990000       0.31820000
H       -0.44290000       2.09520000      -0.60370000
H       -0.52930000       1.76420000       1.12680000
H        0.26990000      -0.55640000       0.80550000
H       -1.15350000      -0.28530000      -0.18970000
H        0.28970000       1.17860000      -2.64140000
H        0.68600000      -0.33540000      -3.46190000
H       -0.90990000      -0.12120000      -2.72630000
H        2.69390000       0.15790000      -2.04120000
H        2.67940000      -0.02670000      -0.26490000
H        4.32890000      -2.72270000      -1.49870000
H        3.08830000      -3.73800000      -2.25170000
H        3.63350000      -2.25830000      -3.05760000
H        1.66830000      -3.49370000      -0.27070000
H        0.20050000      -2.70660000      -1.93940000
