19
Properties=species:S:1:pos:R:3 gdb_108560=T pbc="F F F"
C       -0.01290000       1.26630000      -0.30240000
O       -0.11550000      -0.04270000       0.23320000
C       -1.38880000      -0.58290000       0.15780000
C       -2.47560000      -0.08140000       1.11470000
O       -3.33060000      -1.20730000       1.33190000
C       -3.02650000      -2.15800000       0.31840000
C       -3.29730000      -1.59070000      -1.11690000
C       -1.82140000      -1.19490000      -1.17310000
C       -1.50790000      -2.06680000       0.04420000
H        1.04030000       1.54970000      -0.24450000
H       -0.33930000       1.30020000      -1.35080000
H       -0.60540000       1.99210000       0.27200000
H       -2.02870000       0.22600000       2.06760000
H       -3.05560000       0.76080000       0.71300000
H       -3.48450000      -3.10800000       0.58830000
H       -3.52150000      -2.39220000      -1.82660000
H       -4.06410000      -0.81270000      -1.19300000
H       -1.21360000      -1.05200000      -2.05890000
H       -0.71150000      -2.76970000       0.24450000
