24
Properties=species:S:1:pos:R:3 gdb_118110=T pbc="F F F"
C       -0.21680000       1.79610000      -0.27070000
C        0.00800000       0.29520000      -0.01890000
C       -1.31160000      -0.48140000       0.14840000
C       -2.14560000      -0.07020000       1.35640000
O       -3.24060000      -0.97130000       1.44500000
C        0.81330000      -0.28810000      -1.17090000
C        2.29830000      -0.16350000      -1.22850000
N        1.67130000      -1.47170000      -1.07920000
C        1.85500000      -2.16420000       0.18670000
H        0.73730000       2.31540000      -0.40220000
H       -0.80970000       1.95370000      -1.17950000
H       -0.74590000       2.27510000       0.55810000
H        0.58860000       0.19300000       0.90650000
H       -1.92280000      -0.37120000      -0.75670000
H       -1.09750000      -1.55140000       0.24650000
H       -1.52380000      -0.10970000       2.26720000
H       -2.49960000       0.96620000       1.24910000
H       -3.80150000      -0.69140000       2.17410000
H        0.27400000      -0.24880000      -2.11910000
H        2.81670000       0.02070000      -2.16650000
H        2.78590000       0.26580000      -0.35200000
H        1.91870000      -1.50940000       1.07040000
H        1.03360000      -2.87130000       0.34140000
H        2.78590000      -2.73830000       0.13380000
