17
Properties=species:S:1:pos:R:3 gdb_127134=T pbc="F F F"
C       -0.13800000       1.41280000       0.00010000
N       -0.24920000      -0.04210000       0.00720000
C        0.25530000      -0.70030000       1.20500000
C       -0.07850000      -0.65440000      -1.20440000
N        0.11130000      -0.02100000      -2.32500000
O        0.11690000      -1.05710000      -3.32460000
C       -0.04580000      -2.27600000      -2.73710000
N       -0.11300000      -3.41780000      -3.27720000
N       -0.12670000      -2.01700000      -1.37560000
H        0.90510000       1.75190000      -0.07190000
H       -0.68500000       1.80960000      -0.85560000
H       -0.57480000       1.79990000       0.92420000
H       -0.20280000      -0.23090000       2.07930000
H       -0.01880000      -1.75700000       1.21850000
H        1.34890000      -0.62500000       1.30280000
H       -0.03200000      -3.34110000      -4.28810000
H       -0.43440000      -2.70970000      -0.71750000
