17
Properties=species:S:1:pos:R:3 gdb_127845=T pbc="F F F"
C        0.10550000       1.42800000       0.00650000
N        0.04810000      -0.02310000       0.00240000
C       -1.10390000      -0.57790000       0.00930000
C       -2.43310000      -0.00730000       0.02110000
C       -3.50080000      -0.83340000       0.02650000
N       -3.41020000      -2.21160000       0.02140000
N       -2.24960000      -2.74660000       0.01110000
N       -1.14830000      -1.99230000       0.00530000
C        0.10810000      -2.72950000      -0.00640000
H        1.15260000       1.74110000      -0.00140000
H       -0.37820000       1.87620000      -0.87500000
H       -0.36310000       1.87050000       0.89890000
H       -2.54880000       1.06830000       0.02550000
H       -4.51910000      -0.45970000       0.03530000
H       -0.13900000      -3.78970000      -0.00760000
H        0.68670000      -2.45590000      -0.89180000
H        0.70010000      -2.46090000       0.87160000
