19
Properties=species:S:1:pos:R:3 gdb_112651=T pbc="F F F"
C        0.08240000       1.44490000      -0.00830000
O       -0.04540000       0.03420000      -0.05370000
C        0.65630000      -0.56680000      -1.08640000
O        2.08070000      -0.46490000      -0.85970000
C        2.46630000      -1.71410000      -0.45600000
N        3.77850000      -1.78630000      -0.07350000
N        1.63170000      -2.67210000      -0.52640000
C        0.41160000      -2.10230000      -1.11430000
C       -0.84990000      -2.56470000      -0.39140000
H        1.11530000       1.74810000       0.19930000
H       -0.23600000       1.90300000      -0.95660000
H       -0.56740000       1.79810000       0.79470000
H        0.46100000      -0.05250000      -2.03670000
H        4.15230000      -0.94450000       0.33740000
H        4.00920000      -2.63470000       0.42020000
H        0.34870000      -2.41640000      -2.16620000
H       -0.82570000      -2.26600000       0.65800000
H       -1.74720000      -2.13970000      -0.85120000
H       -0.91310000      -3.65450000      -0.44430000
