14
Properties=species:S:1:pos:R:3 gdb_94526=T pbc="F F F"
O        0.15070000       1.27450000      -0.34570000
C        0.06580000      -0.07590000       0.00870000
C       -0.01190000      -0.30420000       1.52760000
O       -1.23370000      -1.07240000       1.39290000
C       -1.35190000      -0.75020000       0.01480000
C       -2.47780000       0.22210000      -0.28820000
O       -3.25820000       0.67000000       0.50460000
C       -2.51900000       0.60160000      -1.72320000
N       -2.48480000       0.87190000      -2.84720000
H        0.29070000       1.35000000      -1.29570000
H        0.81750000      -0.68910000      -0.49850000
H        0.78980000      -0.88860000       1.98730000
H       -0.17100000       0.62660000       2.08280000
H       -1.47080000      -1.63560000      -0.62610000
