18
Properties=species:S:1:pos:R:3 gdb_55131=T pbc="F F F"
N       -0.14210000       1.11450000      -0.02680000
H       -0.07410000       0.11910000      -0.21770000
H        0.76300000       1.53600000      -0.19880000
H       -2.08930000       2.13310000      -0.48350000
C       -0.63880000       1.38520000       1.28480000
C       -0.10870000       2.48740000       2.14610000
C       -0.26350000       1.11460000       2.75990000
C       -1.74540000       0.90390000       3.10660000
C       -2.10950000       1.10460000       1.60300000
C       -3.08160000       2.17690000       1.15540000
O       -3.94590000       2.66440000       1.83110000
O       -2.88620000       2.56690000      -0.12850000
H        0.91630000       2.77230000       1.92250000
H       -0.73540000       3.31710000       2.46860000
H        0.57530000       0.57980000       3.18840000
H       -1.98450000      -0.09790000       3.46680000
H       -2.18370000       1.64070000       3.78430000
H       -2.42030000       0.15510000       1.15150000
