20
Properties=species:S:1:pos:R:3 gdb_77490=T pbc="F F F"
C       -0.10440000       1.54770000      -0.00990000
C       -0.03460000       0.02830000      -0.00140000
C        1.19860000      -0.66970000      -0.66920000
C        1.70120000      -0.57790000      -2.07620000
N        2.00810000      -0.17380000       0.54080000
C        0.70600000      -0.68200000       1.18230000
C        0.44270000      -0.60930000       2.65400000
C        0.88780000      -1.88390000       0.23140000
O        0.96790000      -3.07650000       0.24480000
H        0.85830000       1.99040000       0.24930000
H       -0.40110000       1.91220000      -0.99920000
H       -0.85480000       1.90080000       0.70560000
H       -0.99680000      -0.42420000      -0.26040000
H        1.91400000       0.45950000      -2.35190000
H        2.61770000      -1.16310000      -2.20380000
H        0.95310000      -0.97330000      -2.77040000
H        2.78790000      -0.80720000       0.74410000
H        0.48690000       0.42390000       3.01190000
H       -0.55020000      -1.01080000       2.87970000
H        1.17640000      -1.19900000       3.21290000
