18
Properties=species:S:1:pos:R:3 gdb_87469=T pbc="F F F"
C       -0.05080000       1.52650000      -0.08770000
C       -0.01020000       0.02520000       0.05930000
N        1.33030000      -0.62000000      -0.10230000
C        0.65880000      -0.66610000       1.17270000
C        1.19130000      -0.21150000       2.55680000
C       -0.18110000      -0.74030000       3.10660000
C        0.22280000      -1.84960000       2.07190000
C        1.63820000      -1.68510000       2.68010000
O        2.55810000      -2.34080000       3.05240000
H        0.82990000       1.98120000       0.37260000
H       -0.06510000       1.81110000      -1.14500000
H       -0.94660000       1.94250000       0.38610000
H       -0.85160000      -0.50270000      -0.38940000
H        1.25340000      -1.50540000      -0.59780000
H        1.71700000       0.70320000       2.81640000
H       -0.21380000      -1.03280000       4.15680000
H       -1.04620000      -0.14400000       2.81320000
H       -0.32720000      -2.74690000       1.79620000
