19
Properties=species:S:1:pos:R:3 gdb_95048=T pbc="F F F"
C       -0.02550000       1.59160000      -0.14570000
C        0.06830000       0.07130000      -0.02880000
C        0.88670000      -0.61000000      -1.14050000
O        1.24870000      -1.89210000      -0.63850000
C        1.47370000      -1.78150000       0.75500000
C        2.86680000      -1.20920000       1.16720000
C        2.16280000       0.09750000       1.56640000
O        2.54400000       1.15510000       1.97970000
C        0.76540000      -0.47160000       1.23770000
H        0.96230000       2.05820000      -0.09690000
H       -0.49480000       1.87800000      -1.09280000
H       -0.62820000       2.01250000       0.66440000
H       -0.94110000      -0.35750000      -0.04500000
H        0.32550000      -0.76140000      -2.06630000
H        1.78130000      -0.01050000      -1.37940000
H        1.20030000      -2.72980000       1.21880000
H        3.33360000      -1.71500000       2.01840000
H        3.60320000      -1.12880000       0.36230000
H        0.10150000      -0.52730000       2.10340000
