14
Properties=species:S:1:pos:R:3 gdb_26550=T pbc="F F F"
C       -0.01780000       1.54270000       0.02240000
C       -0.03230000       0.04230000       0.02070000
C       -1.15750000      -0.68830000      -0.10410000
O       -2.38930000      -0.18500000      -0.24060000
O       -1.16300000      -2.04830000      -0.10480000
C        0.05180000      -2.66570000       0.02990000
N        1.17480000      -2.10480000       0.15440000
C        1.23720000      -0.67400000       0.16140000
O        2.30380000      -0.11160000       0.27970000
H        0.61560000       1.91510000      -0.78880000
H       -1.02060000       1.95720000      -0.08970000
H        0.42080000       1.91510000       0.95360000
H       -3.01740000      -0.91490000      -0.31040000
H       -0.08220000      -3.74320000       0.01490000
