15
Properties=species:S:1:pos:R:3 gdb_10049=T pbc="F F F"
O        0.12550000       1.40330000       0.00820000
C        0.05410000       0.00040000      -0.03510000
C       -1.40360000      -0.52450000      -0.01200000
C       -1.44940000      -2.07180000      -0.10770000
C       -2.80020000      -2.60100000      -0.22530000
C       -3.92350000      -3.01370000      -0.32700000
C       -2.06200000      -0.03400000       1.20130000
N       -2.51460000       0.39190000       2.17620000
H       -0.19960000       1.69680000       0.86750000
H        0.51350000      -0.30560000      -0.98020000
H        0.61940000      -0.47160000       0.78310000
H       -1.93110000      -0.09760000      -0.87180000
H       -0.85560000      -2.36910000      -0.98090000
H       -0.95220000      -2.50190000       0.77000000
H       -4.91500000      -3.38550000      -0.40840000
