22
Properties=species:S:1:pos:R:3 gdb_122837=T pbc="F F F"
C        0.08020000       1.57750000      -0.18140000
C        0.03730000       0.06410000      -0.05150000
O        0.66810000      -0.50360000      -1.17960000
C        0.68080000      -1.91590000      -1.15510000
C        1.38290000      -2.38600000      -2.42070000
C        1.47560000      -3.88350000      -2.53860000
N        1.00670000      -4.66360000      -1.65540000
O        2.11500000      -4.21090000      -3.69570000
C        2.29690000      -5.58910000      -3.97970000
H        1.11470000       1.92860000      -0.23600000
H       -0.43790000       1.89940000      -1.08940000
H       -0.40220000       2.04920000       0.68000000
H        0.54610000      -0.25940000       0.87280000
H       -1.00600000      -0.28870000       0.01960000
H        1.20620000      -2.29040000      -0.26370000
H       -0.34220000      -2.31900000      -1.11210000
H        0.86250000      -1.99480000      -3.30260000
H        2.39450000      -1.96600000      -2.46320000
H        1.14530000      -5.64810000      -1.87530000
H        2.82150000      -5.63530000      -4.93470000
H        2.90330000      -6.08140000      -3.20950000
H        1.33620000      -6.11110000      -4.06890000
