20
Properties=species:S:1:pos:R:3 gdb_89809=T pbc="F F F"
O       -0.10790000       1.45500000       0.05730000
C       -0.00130000       0.04040000       0.01360000
C        0.70790000      -0.58950000       1.23850000
C       -0.02670000      -1.91240000       1.42720000
C        0.65230000      -3.23960000       1.22050000
C        0.17790000      -2.82570000       2.59800000
N       -1.37780000      -1.80360000       0.87360000
C       -2.10250000      -0.60670000       1.33540000
C       -1.38510000      -0.58870000       0.03640000
H        0.76900000       1.82470000      -0.08510000
H        0.50440000      -0.27290000      -0.91240000
H        1.78220000      -0.72140000       1.08540000
H        0.57640000       0.08030000       2.09540000
H        0.08360000      -4.00530000       0.70580000
H        1.71950000      -3.24620000       1.02440000
H        0.91930000      -2.55130000       3.34110000
H       -0.69960000      -3.32410000       2.99450000
H       -3.18260000      -0.71430000       1.34470000
H       -1.69800000      -0.02980000       2.16160000
H       -1.94030000      -0.63510000      -0.89530000
