17
Properties=species:S:1:pos:R:3 gdb_107108=T pbc="F F F"
O        0.64960000       0.21270000       0.71690000
C       -0.17040000       0.30860000      -0.43410000
C       -1.50900000      -0.34880000      -0.24020000
C       -2.24880000      -0.58030000       1.04000000
C       -1.95650000      -1.74880000       0.11350000
C       -2.83350000      -1.62270000      -1.13960000
O       -2.43600000      -0.25290000      -1.33330000
C       -2.36870000      -2.54120000      -2.25320000
O       -1.62460000      -2.22720000      -3.14140000
H        0.30930000       0.82940000       1.37250000
H       -0.33630000       1.35240000      -0.74350000
H        0.36480000      -0.18780000      -1.24900000
H       -1.63800000      -0.58580000       1.93700000
H       -3.26060000      -0.20230000       1.15960000
H       -1.38580000      -2.61790000       0.41060000
H       -3.91890000      -1.73480000      -1.00130000
H       -2.76860000      -3.57870000      -2.15620000
