19
Properties=species:S:1:pos:R:3 gdb_53018=T pbc="F F F"
C       -0.03140000       1.49770000       0.02940000
C        0.00240000       0.04340000      -0.01450000
C        0.03030000      -1.16150000      -0.05050000
C        0.06350000      -2.59350000      -0.09300000
C        1.19100000      -3.40510000       0.62720000
C        0.93710000      -4.49160000      -0.41080000
C       -0.57440000      -4.51840000      -0.68870000
C       -1.21790000      -3.44780000       0.18430000
C        0.31600000      -3.51610000      -1.37770000
H        0.73730000       1.89530000       0.70170000
H        0.14310000       1.92950000      -0.96270000
H       -1.00170000       1.86460000       0.38250000
H        2.16530000      -2.93180000       0.48370000
H        1.03630000      -3.62680000       1.68940000
H        1.56030000      -5.34400000      -0.64760000
H       -1.04310000      -5.39020000      -1.12620000
H       -1.44350000      -3.67070000       1.23350000
H       -2.09300000      -3.00730000      -0.29920000
H        0.50290000      -3.28750000      -2.41640000
