17
Properties=species:S:1:pos:R:3 gdb_65747=T pbc="F F F"
C       -0.22710000       1.59750000       0.25790000
C        0.00650000       0.10470000       0.06790000
C       -1.28800000      -0.69370000      -0.16220000
C       -1.96350000      -0.30160000      -1.46330000
O       -3.08420000       0.13190000      -1.54030000
O        0.98910000      -0.17410000      -0.97760000
C        1.93120000      -0.79520000      -0.08140000
C        0.96870000      -0.54510000       1.08470000
O        0.95360000      -0.75390000       2.25770000
H        0.72140000       2.12290000       0.39420000
H       -0.73500000       2.02260000      -0.61290000
H       -0.85270000       1.76960000       1.13880000
H       -1.03900000      -1.76140000      -0.22030000
H       -1.98390000      -0.53860000       0.66630000
H       -1.33300000      -0.44400000      -2.36650000
H        2.12300000      -1.84980000      -0.31580000
H        2.88680000      -0.25930000      -0.02300000
