20
Properties=species:S:1:pos:R:3 gdb_18342=T pbc="F F F"
C       -0.06450000       1.46920000      -0.04650000
C       -0.01170000      -0.02060000       0.06780000
C       -1.00810000      -0.89190000       0.21210000
C       -2.45740000      -1.16520000      -0.12800000
C       -1.92680000      -2.50350000      -0.76890000
C       -0.59860000      -2.32920000       0.05380000
C        0.83140000      -2.23200000      -0.51390000
C        1.29620000      -0.81190000      -0.05600000
H        0.48050000       1.95350000       0.77480000
H        0.40530000       1.81730000      -0.97580000
H       -1.09400000       1.83810000      -0.02390000
H       -3.08540000      -1.36550000       0.74730000
H       -2.97660000      -0.45190000      -0.77360000
H       -2.51740000      -3.40520000      -0.58800000
H       -1.75560000      -2.38980000      -1.84280000
H       -0.64500000      -2.91500000       0.98110000
H        1.50260000      -3.02860000      -0.17940000
H        0.80210000      -2.26430000      -1.60930000
H        1.98100000      -0.34800000      -0.77650000
H        1.84160000      -0.85480000       0.89830000
