16
Properties=species:S:1:pos:R:3 gdb_125057=T pbc="F F F"
C       -0.04390000       1.56220000       0.17540000
C       -0.01050000       0.08590000      -0.02350000
C       -0.01070000      -0.71890000      -1.14950000
N        0.02760000      -2.02710000      -0.75280000
N        0.05200000      -2.09210000       0.54160000
N        0.02810000      -0.81650000       0.98570000
C       -0.03790000      -0.35720000      -2.57890000
N       -0.16450000      -1.44620000      -3.40740000
N        0.02290000       0.87950000      -2.92100000
H        0.84960000       1.91160000       0.70510000
H       -0.08250000       2.03980000      -0.80360000
H       -0.91920000       1.86520000       0.76090000
H        0.04100000      -0.64370000       1.97890000
H        0.00050000      -2.35330000      -2.99730000
H        0.06900000      -1.33280000      -4.37970000
H       -0.01320000       0.98210000      -3.93620000
