17
Properties=species:S:1:pos:R:3 gdb_85503=T pbc="F F F"
C        0.14130000       1.53930000      -0.19010000
C       -0.04380000       0.03580000       0.05010000
N        0.50190000      -0.77870000      -1.03280000
C        1.81120000      -1.17870000      -0.74980000
O        2.64800000      -1.52590000      -1.54850000
N        1.93660000      -1.13190000       0.63000000
C        0.78450000      -0.53730000       1.25840000
C        1.15000000       0.47710000       2.32080000
O        2.28390000       0.75010000       2.61980000
H        1.20290000       1.79950000      -0.24970000
H       -0.33370000       1.83040000      -1.13240000
H       -0.31930000       2.13320000       0.60610000
H       -1.10560000      -0.18380000       0.19680000
H        0.34420000      -0.49130000      -1.98740000
H        2.84930000      -1.01160000       1.04010000
H        0.16790000      -1.29650000       1.77040000
H        0.28310000       0.93350000       2.84630000
