14
Properties=species:S:1:pos:R:3 gdb_46873=T pbc="F F F"
O        0.26020000      -0.12620000      -0.47470000
C        0.05060000       1.04170000      -0.35080000
O       -1.12060000       1.60240000      -0.75900000
C       -1.31710000       2.99290000      -0.41980000
C       -0.13540000       3.79820000      -0.90350000
C        0.74630000       4.51820000       0.07750000
N        1.12960000       3.22490000      -0.46490000
C        1.06290000       2.03960000       0.26920000
O        1.73130000       1.77550000       1.23200000
H       -2.25280000       3.28100000      -0.89970000
H       -1.43950000       3.08650000       0.66630000
H       -0.15660000       4.13160000      -1.93810000
H        1.33960000       5.36080000      -0.26230000
H        0.44390000       4.55050000       1.12070000
