13
Properties=species:S:1:pos:R:3 gdb_101967=T pbc="F F F"
C        0.05110000       1.44800000      -0.02510000
O       -0.01280000       0.02120000       0.07250000
C       -1.29540000      -0.53450000       0.11520000
C       -1.03870000      -2.08690000       0.16290000
O       -1.71090000      -2.85200000       0.77780000
C       -2.07420000      -0.10330000       1.29370000
N       -2.64060000       0.25760000       2.23230000
C       -2.06360000      -0.26170000      -1.12370000
N       -2.61310000      -0.08110000      -2.12370000
H        1.11280000       1.69210000      -0.05710000
H       -0.43710000       1.79970000      -0.94110000
H       -0.41120000       1.92250000       0.84750000
H       -0.15350000      -2.35530000      -0.44390000
