22
Properties=species:S:1:pos:R:3 gdb_6475=T pbc="F F F"
C       -0.17870000       1.80660000      -0.12010000
C       -0.37070000       0.28630000      -0.17050000
C        0.61460000      -0.46080000      -1.07700000
C        0.46500000      -0.05530000      -2.54760000
C        2.11020000      -0.45970000      -0.61410000
C        2.17220000      -1.97900000      -0.91930000
O        2.90010000      -2.83550000      -0.07460000
C        0.62200000      -2.01560000      -0.90890000
H        0.84030000       2.06710000       0.18700000
H       -0.36240000       2.27520000      -1.09160000
H       -0.86730000       2.26160000       0.59860000
H       -0.27790000      -0.11560000       0.84700000
H       -1.39580000       0.05680000      -0.49360000
H        0.69720000       1.00350000      -2.70070000
H        1.13600000      -0.63110000      -3.19310000
H       -0.55930000      -0.22930000      -2.89760000
H        2.81370000       0.19730000      -1.13250000
H        2.19290000      -0.27850000       0.46430000
H        2.56750000      -2.16580000      -1.92140000
H        2.57820000      -2.70810000       0.82420000
H        0.24710000      -2.31090000       0.07830000
H        0.11580000      -2.61800000      -1.66820000
