20
Properties=species:S:1:pos:R:3 gdb_77167=T pbc="F F F"
C       -0.26430000       1.41350000      -0.03820000
N       -0.06560000      -0.00990000       0.04050000
C       -0.99890000      -1.13910000       0.19090000
C        0.24220000      -2.07600000       0.05730000
C        1.06280000      -0.77780000      -0.11030000
O        2.21470000      -0.48570000      -0.30580000
C       -1.76870000      -1.17870000       1.48320000
C       -3.12980000      -0.52940000       1.58090000
C       -3.00920000      -2.03080000       1.58790000
H        0.71640000       1.87540000      -0.17660000
H       -0.90510000       1.68600000      -0.88680000
H       -0.71710000       1.80920000       0.87790000
H       -1.69430000      -1.21900000      -0.65710000
H        0.48310000      -2.65210000       0.95310000
H        0.25060000      -2.73270000      -0.81430000
H       -1.14240000      -1.12220000       2.37010000
H       -3.39290000      -0.02710000       2.50480000
H       -3.53360000      -0.05970000       0.68950000
H       -3.32950000      -2.56880000       0.70140000
H       -3.18840000      -2.56090000       2.51610000
