20
Properties=species:S:1:pos:R:3 gdb_82405=T pbc="F F F"
C       -0.14050000       1.54450000      -0.05150000
C        0.09310000       0.03480000       0.01840000
C        0.73530000      -0.50380000      -1.25140000
N        2.15480000      -0.16520000      -1.42330000
C        1.77190000      -1.57490000      -1.22340000
C        2.23710000      -2.20420000       0.08230000
C        1.33530000      -1.83230000       1.27860000
C        0.90340000      -0.37320000       1.25460000
O        1.13450000       0.39180000       2.16040000
H        0.80930000       2.06250000      -0.20740000
H       -0.81350000       1.79470000      -0.87800000
H       -0.57530000       1.91260000       0.87970000
H       -0.87490000      -0.48030000       0.13210000
H        0.09770000      -0.45390000      -2.13310000
H        2.37230000       0.01840000      -2.39840000
H        1.81820000      -2.22230000      -2.09660000
H        2.26350000      -3.29390000      -0.01960000
H        3.26310000      -1.87580000       0.27730000
H        0.42110000      -2.43990000       1.23240000
H        1.82880000      -2.03580000       2.23110000
