20
Properties=species:S:1:pos:R:3 gdb_57876=T pbc="F F F"
C        1.71100000       1.18600000       0.51180000
N        1.60870000      -0.24300000       0.24830000
C        2.55110000      -1.05990000       1.00550000
C        1.14660000      -0.59440000      -1.00740000
O        0.98810000       0.21360000      -1.90280000
N        0.83160000      -1.95700000      -1.18390000
C        0.78020000      -2.47900000      -2.54860000
C        0.27280000      -2.72600000      -0.17830000
N       -0.10210000      -3.92450000      -0.39350000
H        2.66690000       1.59990000       0.16170000
H        0.90550000       1.70900000      -0.00100000
H        1.63300000       1.35510000       1.59050000
H        2.24870000      -1.13870000       2.05650000
H        2.62200000      -2.06170000       0.58600000
H        3.55200000      -0.60710000       0.97470000
H        1.33350000      -3.41920000      -2.60080000
H       -0.25340000      -2.68000000      -2.84440000
H        1.21230000      -1.73340000      -3.21220000
H        0.17140000      -2.18450000       0.76460000
H       -0.51390000      -4.31700000       0.45050000
