21
Properties=species:S:1:pos:R:3 gdb_103127=T pbc="F F F"
C        0.27920000       1.53770000       0.24070000
C       -0.12760000       0.09950000      -0.11040000
C        0.64920000      -0.47720000      -1.28990000
C        0.44240000       0.23640000      -2.61530000
C        1.98570000      -1.08060000      -1.04460000
O        2.46420000      -1.05670000       0.26580000
C        0.82040000      -2.01370000      -1.41550000
C        0.27510000      -2.96860000      -0.42980000
O       -0.19830000      -4.04070000      -0.73230000
H        1.34500000       1.58820000       0.48220000
H        0.08040000       2.23670000      -0.57720000
H       -0.28090000       1.88770000       1.11310000
H        0.02320000      -0.52150000       0.77390000
H       -1.19880000       0.06090000      -0.34520000
H        0.75420000       1.28380000      -2.55520000
H        1.01920000      -0.23440000      -3.41670000
H       -0.61350000       0.21370000      -2.90670000
H        2.75010000      -0.95710000      -1.81230000
H        3.04960000      -1.81110000       0.39160000
H        0.81360000      -2.40800000      -2.42700000
H        0.33890000      -2.65910000       0.63340000
