21
Properties=species:S:1:pos:R:3 gdb_40724=T pbc="F F F"
C        0.25710000       1.49760000       0.04020000
O        1.20000000       0.44570000      -0.16930000
C       -0.18090000       0.09690000      -0.01450000
C       -0.54300000      -0.68100000       1.22340000
C       -2.08440000      -0.76110000       1.51320000
C       -2.24900000      -2.29320000       1.57930000
C       -1.00010000      -2.72000000       2.40470000
C       -0.24250000      -2.19800000       1.14930000
C       -1.44550000      -2.75510000       0.33110000
H        0.32540000       1.99990000       1.00490000
H        0.09020000       2.15520000      -0.81220000
H       -0.64950000      -0.24010000      -0.94130000
H       -0.00200000      -0.23350000       2.06400000
H       -2.35810000      -0.26280000       2.44740000
H       -2.68140000      -0.31550000       0.71020000
H       -3.24590000      -2.67720000       1.79810000
H       -0.81600000      -2.22160000       3.36200000
H       -0.92260000      -3.80320000       2.52270000
H        0.78760000      -2.48050000       0.93270000
H       -1.40820000      -3.84230000       0.23310000
H       -1.68510000      -2.30500000      -0.63690000
