25
Properties=species:S:1:pos:R:3 gdb_99023=T pbc="F F F"
C        0.29420000       1.51610000       0.00680000
C        0.01950000       0.01440000       0.00160000
C       -1.46750000      -0.33510000       0.01460000
O       -2.31300000       0.53250000       0.02810000
C       -1.78330000      -1.82840000       0.00900000
C       -3.26310000      -2.27580000       0.02080000
C       -3.99770000      -1.76250000      -1.23230000
C       -3.28000000      -3.81700000       0.01280000
C       -3.97360000      -1.77580000       1.29300000
H        1.37000000       1.71230000      -0.00260000
H       -0.15390000       1.99770000      -0.86600000
H       -0.13700000       1.98850000       0.89300000
H        0.47120000      -0.46800000      -0.87620000
H        0.48840000      -0.47710000       0.86520000
H       -1.27550000      -2.25610000      -0.86820000
H       -1.25870000      -2.26610000       0.87130000
H       -3.50860000      -2.11680000      -2.14760000
H       -5.02880000      -2.13220000      -1.24690000
H       -4.02270000      -0.67200000      -1.25570000
H       -2.76980000      -4.22820000       0.89150000
H       -4.30950000      -4.19090000       0.02070000
H       -2.78680000      -4.21890000      -0.87980000
H       -3.99800000      -0.68560000       1.32840000
H       -5.00430000      -2.14560000       1.32330000
H       -3.46720000      -2.13970000       2.19500000
