19
Properties=species:S:1:pos:R:3 gdb_75012=T pbc="F F F"
C       -0.07800000       1.50960000      -0.00110000
C        0.02190000       0.01750000      -0.03570000
C       -0.10720000      -0.77740000      -1.10140000
C        0.05060000      -2.23780000      -0.77050000
O        1.16180000      -2.87260000      -1.41210000
C        2.26080000      -2.62040000      -0.57600000
O        1.78750000      -2.68680000       0.75390000
C        0.43290000      -2.23910000       0.74400000
C        0.26700000      -0.78150000       1.22780000
H        0.84420000       1.95380000       0.39420000
H       -0.26310000       1.92840000      -0.99360000
H       -0.88740000       1.83460000       0.66490000
H       -0.29850000      -0.43920000      -2.11390000
H       -0.82990000      -2.83810000      -1.01800000
H        3.01240000      -3.40030000      -0.72970000
H        2.69570000      -1.62670000      -0.78170000
H       -0.14620000      -2.94560000       1.34370000
H        1.15870000      -0.45160000       1.77330000
H       -0.57740000      -0.68410000       1.92350000
