16
Properties=species:S:1:pos:R:3 gdb_128801=T pbc="F F F"
C       -0.05000000       1.31320000       0.02130000
O       -0.00690000      -0.09610000      -0.03070000
C        0.70830000      -0.58550000      -1.14150000
C        0.68030000      -2.07800000      -1.08110000
N        1.23470000      -2.92110000      -1.93950000
C        0.90390000      -4.13060000      -1.40830000
O        1.27370000      -5.28720000      -1.97450000
N        0.19300000      -4.10550000      -0.29580000
N        0.06320000      -2.75900000      -0.10670000
H        0.95910000       1.74560000       0.09600000
H       -0.54420000       1.73520000      -0.86650000
H       -0.62120000       1.58710000       0.91060000
H        0.26180000      -0.24270000      -2.08920000
H        1.75240000      -0.23200000      -1.13390000
H        1.77660000      -5.05630000      -2.76440000
H       -0.44160000      -2.38670000       0.67970000
