16
Properties=species:S:1:pos:R:3 gdb_84528=T pbc="F F F"
C       -0.31670000       1.52790000      -0.03400000
C        0.00300000       0.03380000       0.01620000
N        0.68870000      -0.43630000      -1.20580000
C        1.68820000      -1.12900000      -0.84940000
N        1.91380000      -1.34460000       0.55890000
C        2.34650000      -0.08590000       1.24560000
C        2.93370000       1.00380000       0.50910000
N        3.45550000       1.87970000      -0.03740000
C        0.89820000      -0.46210000       1.16000000
H        0.59020000       2.12860000      -0.12540000
H       -0.95400000       1.73800000      -0.89630000
H       -0.84960000       1.83280000       0.87180000
H       -0.94510000      -0.51680000       0.08450000
H        2.37710000      -1.60070000      -1.54240000
H        2.85310000      -0.27690000       2.18760000
H        0.43690000      -0.81520000       2.07640000
