17
Properties=species:S:1:pos:R:3 gdb_72427=T pbc="F F F"
C        0.00710000       1.46880000       0.05580000
C       -0.02890000      -0.03530000      -0.04440000
C        0.79750000      -0.68450000      -1.17510000
O        1.04950000      -2.00130000      -0.65880000
C        0.51430000      -1.97830000       0.66910000
O        0.63210000      -0.64940000       1.10090000
C       -1.00930000      -2.12740000       0.49020000
O       -1.70280000      -3.08670000       0.67820000
C       -1.41100000      -0.72390000      -0.00500000
H        1.03880000       1.82350000       0.13040000
H       -0.45360000       1.92090000      -0.82780000
H       -0.54100000       1.80800000       0.93900000
H        0.25420000      -0.75060000      -2.12320000
H        1.74730000      -0.16170000      -1.33360000
H        1.03130000      -2.68670000       1.31270000
H       -2.06590000      -0.24490000       0.72910000
H       -1.93550000      -0.76950000      -0.96230000
