17
Properties=species:S:1:pos:R:3 gdb_4536=T pbc="F F F"
C        0.09330000       1.43070000      -0.00860000
N       -0.03780000      -0.00520000       0.01800000
C       -0.14490000      -0.81090000      -1.09500000
C       -0.03600000      -2.12370000      -0.69120000
N       -0.18130000      -3.31490000      -1.43920000
C        0.15680000      -2.11660000       0.72200000
N        0.34350000      -3.29720000       1.47640000
C        0.16260000      -0.79950000       1.12680000
H        1.13190000       1.75670000      -0.15710000
H       -0.51610000       1.84070000      -0.81890000
H       -0.26850000       1.85130000       0.93400000
H       -0.29580000      -0.38520000      -2.07460000
H       -0.19250000      -3.13690000      -2.43620000
H        0.58020000      -3.95740000      -1.24200000
H        0.30700000      -3.12030000       2.47290000
H       -0.37070000      -3.98330000       1.25050000
H        0.29030000      -0.36280000       2.10480000
