23
Properties=species:S:1:pos:R:3 gdb_38953=T pbc="F F F"
C        0.17830000       1.65750000       0.26160000
C        1.34690000       0.76760000      -0.07590000
C        2.21350000       0.29810000       1.09150000
C        1.39550000      -0.77980000       1.86680000
C        1.26480000      -0.55450000       3.38720000
C       -0.00870000       0.29250000       3.54860000
C       -0.96990000      -0.28820000       2.49190000
C       -0.07040000      -0.73700000       1.30450000
C       -0.03530000       0.17390000       0.07740000
H        0.12530000       2.08540000       1.25770000
H       -0.20120000       2.31280000      -0.51570000
H        1.80630000       0.87200000      -1.05290000
H        3.15560000      -0.12230000       0.72670000
H        2.48390000       1.13500000       1.74720000
H        1.84320000      -1.75740000       1.66770000
H        1.12570000      -1.51770000       3.89330000
H        2.15340000      -0.08910000       3.82550000
H       -0.41870000       0.25750000       4.56260000
H        0.20960000       1.34520000       3.33300000
H       -1.48770000      -1.15740000       2.91320000
H       -1.73990000       0.42330000       2.18090000
H       -0.37870000      -1.73330000       0.97400000
H       -0.60100000      -0.13650000      -0.79490000
