18
Properties=species:S:1:pos:R:3 gdb_84313=T pbc="F F F"
C        0.35290000       1.62680000      -0.02690000
C       -0.04390000       0.14500000      -0.01480000
C        0.25320000      -0.53350000      -1.32950000
C        0.68290000      -1.79590000      -1.43230000
C        0.90580000      -2.63290000      -0.23590000
O        1.02300000      -3.84220000      -0.29320000
C        0.97100000      -1.90440000       1.06960000
C        1.96060000      -0.78020000       1.17810000
N        0.53770000      -0.50170000       1.17230000
H        1.42860000       1.74580000      -0.18980000
H       -0.17350000       2.15890000      -0.82450000
H        0.09640000       2.08800000       0.92960000
H       -1.13450000       0.10030000       0.12750000
H        0.06250000       0.05260000      -2.22720000
H        0.83820000      -2.27870000      -2.39180000
H        0.77690000      -2.52630000       1.93870000
H        2.46580000      -0.61410000       2.12520000
H        2.55100000      -0.55760000       0.29220000
