20
Properties=species:S:1:pos:R:3 gdb_36527=T pbc="F F F"
N       -0.09410000      -1.18040000       0.03440000
C       -0.07060000      -0.02500000       0.02270000
C       -0.01830000       1.43620000       0.00580000
C        1.41910000       1.99640000       0.00730000
C        1.41060000       3.52600000      -0.14450000
C        2.83590000       4.08380000      -0.02230000
C        3.49980000       3.55880000       1.25160000
O        3.48880000       2.14140000       1.29830000
C        2.17890000       1.61240000       1.28730000
H       -0.55350000       1.78940000      -0.88320000
H       -0.57190000       1.81360000       0.87470000
H        1.96100000       1.56040000      -0.84100000
H        0.95980000       3.81440000      -1.10110000
H        0.78010000       3.96070000       0.64500000
H        3.43250000       3.77020000      -0.88720000
H        2.82410000       5.17940000      -0.01310000
H        4.55050000       3.85690000       1.30540000
H        2.98570000       3.96830000       2.13920000
H        1.61350000       1.97050000       2.16800000
H        2.28110000       0.52700000       1.37220000
