18
Properties=species:S:1:pos:R:3 gdb_14626=T pbc="F F F"
O       -0.71950000       0.93170000       0.85340000
C       -0.01680000       1.05220000      -0.11600000
C        1.30570000       1.78450000      -0.14520000
C        1.31520000       2.90520000      -1.19930000
C        2.67940000       3.59320000      -1.31920000
C        2.68880000       4.71390000      -2.37340000
C        4.01150000       5.44590000      -2.40240000
O        4.71500000       5.56520000      -3.37140000
H       -0.31790000       0.61630000      -1.09860000
H        1.51300000       2.17110000       0.85700000
H        2.08520000       1.04990000      -0.39600000
H        1.02820000       2.49210000      -2.17530000
H        0.55120000       3.65030000      -0.94380000
H        2.96630000       4.00620000      -0.34320000
H        3.44340000       2.84800000      -1.57480000
H        2.48170000       4.32700000      -3.37560000
H        1.90940000       5.44850000      -2.12270000
H        4.31200000       5.88260000      -1.42000000
