17
Properties=species:S:1:pos:R:3 gdb_107863=T pbc="F F F"
C        0.03350000       1.55180000       0.00120000
C        0.07200000       0.02040000      -0.04900000
C        0.71470000      -0.49760000      -1.29880000
O        2.10090000      -0.13540000      -1.60200000
C        1.68010000      -0.97930000      -2.70250000
C        0.86620000      -1.98460000      -1.81290000
C       -0.34590000      -1.78560000      -2.71250000
O       -1.27600000      -2.40890000      -3.12730000
C        0.23450000      -0.38150000      -2.80570000
H        1.04050000       1.96540000      -0.09840000
H       -0.58010000       1.95870000      -0.80880000
H       -0.38800000       1.89590000       0.94940000
H        0.63120000      -0.37320000       0.80830000
H       -0.93970000      -0.39880000       0.01160000
H        2.37910000      -1.20070000      -3.50580000
H        1.25240000      -2.83430000      -1.25610000
H       -0.06910000       0.51830000      -3.33380000
