17
Properties=species:S:1:pos:R:3 gdb_15148=T pbc="F F F"
O        0.39990000       0.29760000      -0.66870000
C        0.55710000       1.48090000      -0.66340000
O        0.72020000       2.18370000       0.47720000
C        1.01410000       3.57680000       0.35920000
C        2.51800000       3.81940000       0.30460000
N        3.06710000       3.31440000      -0.94450000
C        3.22680000       4.27510000      -2.03390000
C        4.41050000       3.75100000      -1.29730000
H        0.56100000       2.11940000      -1.56520000
H        0.52530000       3.99530000      -0.53050000
H        0.58200000       4.05210000       1.24330000
H        2.71080000       4.89790000       0.45230000
H        2.99010000       3.28080000       1.13380000
H        2.98920000       3.90940000      -3.02850000
H        2.94460000       5.31070000      -1.84770000
H        4.91690000       4.43800000      -0.62100000
H        5.05090000       2.99640000      -1.74420000
