19
Properties=species:S:1:pos:R:3 gdb_107693=T pbc="F F F"
C        0.12780000       1.36750000      -0.09110000
C        0.04540000      -0.12550000      -0.03150000
N        0.61110000      -1.04840000      -1.07890000
C       -0.00100000      -1.98270000      -0.07030000
C        0.11520000      -3.46680000      -0.24820000
O        1.47370000      -3.84310000      -0.38390000
C        0.46750000      -1.08280000       1.12190000
N       -0.87600000      -0.98130000       1.77930000
C       -1.19010000      -1.03460000       0.31470000
H        1.16900000       1.69260000      -0.17910000
H       -0.42640000       1.76180000      -0.94980000
H       -0.30000000       1.79510000       0.82040000
H        0.03150000      -1.01510000      -1.92360000
H       -0.28720000      -3.99150000       0.62690000
H       -0.48130000      -3.78410000      -1.12110000
H        1.88980000      -3.15670000      -0.92140000
H        1.41290000      -1.11160000       1.66320000
H       -1.11860000      -1.86830000       2.22840000
H       -2.20430000      -0.99470000      -0.09010000
