21
Properties=species:S:1:pos:R:3 gdb_31646=T pbc="F F F"
C        0.06000000       1.43030000       0.05390000
N       -0.16230000       0.00140000      -0.05590000
C        0.52770000      -0.67560000      -1.07040000
C        1.16310000      -0.12900000      -2.16560000
N        1.63310000      -1.16990000      -2.95380000
C        2.44760000      -0.99210000      -4.13320000
C        1.32850000      -2.36710000      -2.35400000
C        1.72120000      -3.68410000      -2.93920000
C        0.63820000      -2.09230000      -1.19220000
H        1.12450000       1.71010000       0.13710000
H       -0.34620000       1.93510000      -0.83050000
H       -0.47210000       1.81470000       0.92780000
H       -0.07830000      -0.47000000       0.83400000
H        1.31200000       0.89440000      -2.46630000
H        3.52190000      -1.04110000      -3.91040000
H        2.21690000      -1.75810000      -4.87830000
H        2.23330000      -0.01590000      -4.57440000
H        2.80880000      -3.79650000      -3.03530000
H        1.36360000      -4.49010000      -2.29440000
H        1.29160000      -3.84700000      -3.93610000
H        0.23190000      -2.82810000      -0.51340000
