18
Properties=species:S:1:pos:R:3 gdb_26498=T pbc="F F F"
C        0.07220000       1.51560000      -0.12270000
C        0.01300000       0.00440000      -0.02020000
C        1.30900000      -0.77880000      -0.13960000
C        0.63290000      -0.66180000       1.19600000
C       -1.20330000      -0.61800000      -0.58140000
C       -2.27930000      -0.04240000      -1.17680000
O       -3.15800000      -1.03400000      -1.53470000
C       -2.55460000      -2.16890000      -1.12920000
N       -1.40670000      -2.00090000      -0.56280000
H        1.00000000       1.89520000       0.31390000
H        0.03520000       1.84620000      -1.16730000
H       -0.76340000       1.98450000       0.40980000
H        1.26100000      -1.73790000      -0.64150000
H        2.21610000      -0.21030000      -0.31570000
H        1.07110000      -0.01210000       1.94630000
H        0.13510000      -1.54300000       1.58280000
H       -2.57230000       0.96450000      -1.41380000
H       -3.07990000      -3.09300000      -1.31390000
