15
Properties=species:S:1:pos:R:3 gdb_78797=T pbc="F F F"
N       -0.15270000       1.53820000      -0.04050000
C       -0.12900000       0.13470000      -0.04100000
C       -1.33070000      -0.93790000       0.06520000
C       -0.48780000      -1.84260000      -0.71310000
C        0.38370000      -0.69900000      -1.25410000
O       -0.11560000      -0.11440000      -2.43500000
N       -0.36570000      -1.87470000       0.79190000
C        0.41290000      -0.68280000       1.11460000
O        1.06060000      -0.44200000       2.08580000
H        0.45980000       1.92980000       0.66470000
H        0.04820000       1.92830000      -0.95290000
H       -2.37340000      -0.88230000       0.33800000
H       -0.72780000      -2.78890000      -1.18120000
H        1.46990000      -0.86120000      -1.31470000
H        0.22110000      -0.60620000      -3.19050000
