21
Properties=species:S:1:pos:R:3 gdb_58615=T pbc="F F F"
C        0.89740000       0.13130000      -1.12890000
C       -0.04660000       0.03510000       0.07250000
O       -1.26810000      -0.59210000      -0.30700000
C        0.61420000      -0.66060000       1.27100000
C       -0.26240000      -1.51360000       2.18990000
C        0.72150000      -2.16860000       1.27320000
C        1.69440000       0.06830000       2.03060000
C        1.67700000       1.58900000       2.02390000
O        2.51520000      -0.53440000       2.69090000
H        1.18960000      -0.87160000      -1.46320000
H        0.40370000       0.64550000      -1.95810000
H        1.81780000       0.67020000      -0.88560000
H       -0.34860000       1.04390000       0.37580000
H       -1.05370000      -1.35550000      -0.85350000
H       -0.03080000      -1.49040000       3.24840000
H       -1.31220000      -1.55680000       1.92800000
H        0.33170000      -2.69970000       0.41110000
H        1.62610000      -2.57880000       1.70450000
H        0.70260000       1.96120000       2.35960000
H        2.45880000       1.95230000       2.69160000
H        1.84320000       1.99100000       1.01960000
