16
Properties=species:S:1:pos:R:3 gdb_17764=T pbc="F F F"
C        0.03800000      -1.20510000       0.01660000
C       -0.02640000      -0.01300000       0.15550000
C       -0.06790000       1.43730000       0.31270000
C        1.31190000       2.07360000       0.11640000
C        1.97540000       2.25760000      -1.27700000
C        1.00010000       3.40880000      -1.62120000
C        1.51440000       3.58940000      -0.17200000
O        2.87490000       3.26090000      -0.65590000
H        0.08300000      -2.25930000      -0.10130000
H       -0.80470000       1.85670000      -0.38070000
H       -0.42720000       1.68410000       1.32050000
H        2.02680000       1.70060000       0.85290000
H        2.42840000       1.51090000      -1.92880000
H        1.39180000       4.13600000      -2.33280000
H       -0.05410000       3.18320000      -1.79300000
H        1.41360000       4.44220000       0.50040000
