13
Properties=species:S:1:pos:R:3 gdb_941=T pbc="F F F"
N       -0.01440000       1.41090000       0.14680000
C        0.01940000       0.02210000       0.04520000
C       -1.16600000      -0.73120000       0.02450000
N       -1.20720000      -2.05920000      -0.01260000
C       -0.04710000      -2.72190000      -0.03300000
C        1.18600000      -2.07640000      -0.01940000
C        1.22350000      -0.68920000       0.01970000
H        0.79610000       1.88750000      -0.22110000
H       -0.87180000       1.83890000      -0.17160000
H       -2.12580000      -0.21490000       0.04070000
H       -0.10820000      -3.80610000      -0.06370000
H        2.10550000      -2.65160000      -0.04110000
H        2.17070000      -0.15750000       0.03370000
