21
Properties=species:S:1:pos:R:3 gdb_101432=T pbc="F F F"
C       -0.27270000       1.43330000       0.25300000
C        0.07540000      -0.03480000      -0.01850000
C        0.74710000      -0.21300000      -1.39000000
O       -0.06860000       0.23680000      -2.46340000
C        0.97000000      -0.58560000       1.08780000
O        0.39360000      -0.43000000       2.41140000
C        0.40400000      -1.84980000       2.65000000
C        1.05640000      -2.12230000       1.27760000
O        0.29430000      -2.84690000       0.33800000
H        0.63480000       2.04820000       0.29510000
H       -0.90200000       1.82390000      -0.54990000
H       -0.79580000       1.53790000       1.20610000
H       -0.84900000      -0.62760000      -0.02190000
H        1.65720000       0.39760000      -1.43990000
H        1.03810000      -1.26280000      -1.52900000
H       -0.83730000      -0.34140000      -2.50150000
H        1.95450000      -0.09640000       1.04790000
H        0.99610000      -2.11560000       3.53470000
H       -0.60730000      -2.26550000       2.74560000
H        2.08230000      -2.50500000       1.33390000
H        0.41250000      -3.78640000       0.50770000
