21
Properties=species:S:1:pos:R:3 gdb_95957=T pbc="F F F"
C       -0.12720000       1.55230000      -0.19830000
C        0.03210000       0.03730000      -0.07320000
C        0.91760000      -0.57420000      -1.18060000
O        1.49680000      -1.73650000      -0.61380000
C        1.85290000      -1.36100000       0.70390000
C        0.69580000      -0.49020000       1.23360000
C        1.07100000       0.44290000       2.41020000
O        0.30380000      -0.34120000       3.34400000
C       -0.22580000      -1.15790000       2.28290000
H        0.83650000       2.06630000      -0.11070000
H       -0.55220000       1.81300000      -1.17360000
H       -0.79570000       1.95710000       0.56760000
H       -0.96110000      -0.42190000      -0.14230000
H        0.36360000      -0.86950000      -2.07510000
H        1.70240000       0.14320000      -1.47960000
H        2.02630000      -2.26920000       1.28730000
H        2.78670000      -0.77090000       0.69800000
H        2.13700000       0.46840000       2.67260000
H        0.70080000       1.47330000       2.34250000
H       -1.29850000      -0.97540000       2.12640000
H       -0.07010000      -2.22930000       2.46260000
