14
Properties=species:S:1:pos:R:3 gdb_25507=T pbc="F F F"
O        1.88770000       4.21030000       0.20880000
C        1.06040000       3.34140000       0.16240000
N        1.27620000       1.97920000       0.01970000
C        2.46900000       1.26340000      -0.10530000
C        2.39780000      -0.13710000      -0.24010000
N        3.48250000      -0.88490000      -0.36320000
C        4.65790000      -0.24350000      -0.35350000
C        4.72320000       1.13760000      -0.22040000
N        3.63460000       1.89990000      -0.09570000
H       -0.03050000       3.53330000       0.23160000
H        0.43730000       1.41810000       0.00380000
H        1.43610000      -0.64860000      -0.24680000
H        5.55520000      -0.84630000      -0.45370000
H        5.67900000       1.65520000      -0.21310000
