16
Properties=species:S:1:pos:R:3 gdb_65758=T pbc="F F F"
C       -0.04020000       1.65650000      -0.01930000
C       -0.05160000       0.13600000      -0.02150000
C        0.76030000      -0.57320000      -1.12220000
O        1.69930000      -1.08450000      -0.11680000
C        0.98590000      -0.54200000       0.91260000
O        1.18610000      -0.63110000       2.08150000
O       -1.36820000      -0.38830000       0.05530000
C       -1.99290000      -0.33720000       1.26390000
N       -3.21670000      -0.62830000       1.32570000
H        0.97460000       2.04020000      -0.15820000
H       -0.67650000       2.02990000      -0.82670000
H       -0.42180000       2.04080000       0.93060000
H        0.22980000      -1.38940000      -1.61260000
H        1.27420000       0.06590000      -1.84120000
H       -1.33150000      -0.06540000       2.09250000
H       -3.53580000      -0.57890000       2.29140000
