20
Properties=species:S:1:pos:R:3 gdb_61510=T pbc="F F F"
C       -0.62440000       1.08340000      -0.02820000
C        0.19910000      -0.17240000      -0.33020000
N        0.96340000      -0.74550000       0.77380000
C        2.29900000      -0.23680000       1.07150000
C        2.38870000       0.99110000       1.98280000
C        3.11950000      -1.40830000       1.62190000
O        3.92020000      -1.33010000       2.51570000
C       -0.67240000      -1.29210000      -0.90930000
O       -1.80060000      -1.15490000      -1.30240000
H        0.01860000       1.92930000       0.22430000
H       -1.23840000       1.34900000      -0.89220000
H       -1.30460000       0.90250000       0.81080000
H        0.92400000       0.04900000      -1.12970000
H        0.39980000      -0.78370000       1.61640000
H        2.76900000      -0.00770000       0.10170000
H        1.86670000       0.80570000       2.92740000
H        3.43240000       1.20560000       2.22550000
H        1.94590000       1.87040000       1.51000000
H        2.89370000      -2.36930000       1.10880000
H       -0.15290000      -2.27570000      -0.92560000
