21
Properties=species:S:1:pos:R:3 gdb_90667=T pbc="F F F"
C       -0.05300000       1.42290000      -0.07180000
C        0.00200000      -0.07760000       0.12660000
O        0.97560000      -0.69260000      -0.77810000
C        1.77380000      -1.09460000       0.33510000
C        0.78040000      -0.56660000       1.35070000
C        1.03570000      -2.04610000       1.21780000
C        0.14350000      -3.20910000       0.77010000
C        1.09590000      -4.16410000       1.55260000
C        1.74470000      -2.93140000       2.25200000
H        0.93380000       1.86970000       0.08120000
H       -0.38760000       1.65840000      -1.08660000
H       -0.75640000       1.87520000       0.63650000
H       -0.99000000      -0.52690000      -0.01410000
H        2.85310000      -1.02620000       0.24270000
H        0.92480000      -0.01330000       2.27080000
H       -0.86140000      -3.16920000       1.20320000
H        0.05610000      -3.35880000      -0.30820000
H        0.62460000      -4.90200000       2.20480000
H        1.79680000      -4.68130000       0.89300000
H        2.83770000      -2.89020000       2.27990000
H        1.36820000      -2.77870000       3.26880000
