21
Properties=species:S:1:pos:R:3 gdb_114786=T pbc="F F F"
O        0.68560000      -0.25160000       1.33150000
C        0.02860000       0.16280000       0.14240000
C       -1.35140000      -0.48400000      -0.02120000
C       -2.09940000      -0.08020000      -1.32930000
C       -2.14840000      -1.36600000      -2.16980000
C       -0.71030000      -1.85710000      -2.53470000
C       -0.74120000      -2.74360000      -1.28770000
C       -2.24170000      -2.53740000      -1.14700000
C       -1.32780000      -2.01410000      -0.08060000
H        0.87500000      -1.19080000       1.23940000
H       -0.07870000       1.24990000       0.22620000
H        0.65330000      -0.03520000      -0.74160000
H       -1.94010000      -0.18790000       0.85490000
H       -3.11320000       0.26240000      -1.09650000
H       -1.59750000       0.73490000      -1.86410000
H       -2.86350000      -1.33910000      -2.99210000
H       -0.71950000      -2.46890000      -3.44110000
H        0.07520000      -1.09930000      -2.63240000
H       -0.17530000      -3.65860000      -1.15100000
H       -3.04280000      -3.25120000      -1.00960000
H       -1.27170000      -2.56990000       0.85000000
