18
Properties=species:S:1:pos:R:3 gdb_68943=T pbc="F F F"
C        0.15030000       1.44010000       0.20090000
C        0.02230000      -0.04220000       0.01050000
C        1.14790000      -0.92960000      -0.39910000
C        0.58180000      -1.16680000       0.98840000
C        1.33850000      -0.85740000       2.20770000
O        2.35990000      -0.20430000       2.23190000
C       -0.75650000      -1.85670000       0.90140000
N       -1.79400000      -0.89770000       1.36920000
C       -1.28160000      -0.81240000      -0.02170000
H        1.13200000       1.69190000       0.61260000
H        0.03790000       1.96730000      -0.75380000
H       -0.61700000       1.80500000       0.88960000
H        1.00330000      -1.70180000      -1.14950000
H        2.13020000      -0.46850000      -0.39840000
H        0.88420000      -1.24820000       3.14410000
H       -0.94970000      -2.92300000       0.89140000
H       -2.69210000      -1.38370000       1.32760000
H       -1.95240000      -0.92690000      -0.86530000
