12
Properties=species:S:1:pos:R:3 gdb_131182=T pbc="F F F"
O        0.13560000       1.37990000      -0.00370000
C        0.09810000       0.03670000      -0.04520000
C        0.02980000      -0.78370000      -1.13780000
O       -0.04310000      -0.46250000      -2.43130000
C        0.13330000      -1.43900000      -3.38920000
N       -0.01020000      -1.10370000      -4.58850000
O        0.01250000      -2.04660000      -0.72120000
N        0.08010000      -1.99500000       0.72340000
N        0.12410000      -0.77160000       1.04510000
H        0.16820000       1.64410000       0.92370000
H        0.38830000      -2.41340000      -2.97090000
H        0.15460000      -1.90090000      -5.20000000
