14
Properties=species:S:1:pos:R:3 gdb_56417=T pbc="F F F"
N       -0.53560000       1.09250000       0.29320000
C        0.05900000      -0.19170000      -0.09080000
C        0.83030000      -0.13350000      -1.36050000
N        1.39890000      -0.03280000      -2.36160000
C        0.90480000      -0.72150000       0.98180000
C        1.60140000      -1.15900000       1.85600000
C        2.45290000      -1.68810000       2.91850000
C        1.82810000      -2.79130000       3.65970000
N        1.34860000      -3.65970000       4.25000000
H        0.19860000       1.78200000       0.42590000
H       -1.12730000       1.42890000      -0.46150000
H       -0.76760000      -0.89610000      -0.25520000
H        3.40280000      -2.04480000       2.50070000
H        2.70870000      -0.89350000       3.63090000
