19
Properties=species:S:1:pos:R:3 gdb_84352=T pbc="F F F"
C        0.18610000       1.54750000       0.10550000
C        0.05260000       0.02800000      -0.04160000
C        0.82390000      -0.55060000      -1.19910000
C        1.55420000      -1.59370000      -0.82730000
C        1.34250000      -1.87140000       0.64650000
C        2.60130000      -2.06970000       1.39450000
N        3.58050000      -2.24580000       1.98210000
N        0.61800000      -0.69060000       1.11300000
C       -0.26640000      -0.91250000       2.23820000
H        1.23840000       1.82850000       0.19980000
H       -0.24340000       2.05880000      -0.76250000
H       -0.34470000       1.90010000       0.99510000
H       -1.02180000      -0.21300000      -0.16770000
H        0.75530000      -0.14560000      -2.20130000
H        2.19760000      -2.20780000      -1.44260000
H        0.75850000      -2.80540000       0.77240000
H        0.29890000      -1.32440000       3.07990000
H       -0.69560000       0.03850000       2.56550000
H       -1.09920000      -1.60420000       2.00970000
