20
Properties=species:S:1:pos:R:3 gdb_58847=T pbc="F F F"
C       -0.23590000       1.59420000      -0.13730000
C       -0.03080000       0.07560000      -0.00480000
C       -1.35670000      -0.65430000       0.24340000
C        0.71850000      -0.45240000      -1.20600000
C        0.10540000      -0.88110000      -2.55060000
C        0.97680000      -1.82170000      -1.79820000
O        2.36890000      -1.49380000      -2.06310000
C        2.18420000      -0.25360000      -1.45320000
N        3.01360000       0.64060000      -1.16380000
H        0.72060000       2.10140000      -0.28700000
H       -0.88380000       1.82520000      -0.99060000
H       -0.70700000       2.00000000       0.76380000
H        0.61660000      -0.09780000       0.86530000
H       -2.07780000      -0.46340000      -0.55890000
H       -1.21640000      -1.73740000       0.32570000
H       -1.80920000      -0.30520000       1.17640000
H       -0.96010000      -1.08340000      -2.50870000
H        0.46000000      -0.45770000      -3.48520000
H        0.75950000      -2.82540000      -1.46000000
H        3.95680000       0.38420000      -1.46040000
