19
Properties=species:S:1:pos:R:3 gdb_82415=T pbc="F F F"
C       -0.37830000       1.44690000       0.00290000
C        0.12870000       0.00820000       0.02010000
N        0.82000000      -0.29520000      -1.24810000
C        2.28130000      -0.14320000      -1.28520000
C        1.65460000      -1.49020000      -1.21590000
C        1.66480000      -2.26940000       0.07790000
O        1.73790000      -1.42100000       1.22330000
C        0.95630000      -0.29790000       1.26360000
N        0.94660000       0.44990000       2.28430000
H        0.46020000       2.14790000      -0.02700000
H       -0.99710000       1.59990000      -0.88450000
H       -0.95860000       1.66060000       0.90100000
H       -0.73890000      -0.66790000       0.04250000
H        2.67760000       0.22090000      -2.22820000
H        2.79480000       0.22740000      -0.40190000
H        1.61200000      -2.11360000      -2.10830000
H        0.76420000      -2.89800000       0.13960000
H        2.53460000      -2.92950000       0.14270000
H        1.55400000       0.06180000       3.00990000
