21
Properties=species:S:1:pos:R:3 gdb_120826=T pbc="F F F"
C        0.06570000       1.32950000       0.38920000
O       -0.02590000      -0.07270000       0.31850000
C       -1.25530000      -0.51210000      -0.22170000
C       -1.22360000      -2.01480000      -0.30820000
C       -1.56930000      -2.86810000       0.88490000
C       -2.47650000      -2.86390000      -0.32520000
C       -3.88180000      -2.28960000      -0.25920000
C       -4.86530000      -3.30900000       0.28120000
O       -5.90250000      -3.61320000      -0.24840000
H        1.04510000       1.57330000       0.80790000
H       -0.02280000       1.79710000      -0.60460000
H       -0.71450000       1.75960000       1.03810000
H       -2.09040000      -0.16540000       0.40990000
H       -1.40820000      -0.07140000      -1.22270000
H       -0.41460000      -2.37930000      -0.93490000
H       -0.97120000      -3.74820000       1.09160000
H       -1.91870000      -2.35140000       1.77390000
H       -2.40870000      -3.74230000      -0.96220000
H       -3.90730000      -1.42940000       0.42300000
H       -4.23880000      -1.95290000      -1.23760000
H       -4.54800000      -3.78190000       1.23940000
