18
Properties=species:S:1:pos:R:3 gdb_126466=T pbc="F F F"
C        0.12110000       1.12990000      -0.72320000
C       -0.16050000       0.13090000       0.41050000
C       -1.52620000      -0.48120000       0.32320000
N       -2.41600000      -0.23860000       1.25710000
O       -3.56610000      -0.94020000       0.87860000
C       -3.32850000      -1.57700000      -0.27930000
C       -4.44330000      -2.39420000      -0.85800000
O       -3.97390000      -3.34710000      -1.79030000
C       -2.05620000      -1.33640000      -0.69010000
H        1.12740000       1.54750000      -0.62510000
H        0.05010000       0.65120000      -1.70500000
H       -0.59530000       1.95630000      -0.70070000
H        0.59030000      -0.66840000       0.38830000
H       -0.07240000       0.62680000       1.38140000
H       -5.01920000      -2.84880000      -0.03780000
H       -5.13540000      -1.74800000      -1.41030000
H       -3.38580000      -3.94960000      -1.32240000
H       -1.57470000      -1.70130000      -1.58160000
