17
Properties=species:S:1:pos:R:3 gdb_105342=T pbc="F F F"
O        0.10950000       1.40550000      -0.18210000
C        0.06880000       0.02170000       0.08670000
C       -1.36460000      -0.53960000      -0.00070000
C       -2.07590000      -0.56800000      -1.39670000
N       -2.34690000      -2.04460000      -1.30290000
C       -1.02630000      -2.68750000      -1.23290000
C       -1.55990000      -2.06700000      -0.00410000
C       -2.17920000       0.12630000       1.01150000
N       -2.77430000       0.69400000       1.82500000
H       -0.34380000       1.86580000       0.53380000
H        0.68720000      -0.45530000      -0.67710000
H        0.49750000      -0.22710000       1.06900000
H       -3.01030000      -0.00890000      -1.42640000
H       -1.44540000      -0.27720000      -2.24220000
H       -1.07980000      -3.77020000      -1.29060000
H       -0.19030000      -2.24800000      -1.77140000
H       -1.88650000      -2.64100000       0.85600000
