19
Properties=species:S:1:pos:R:3 gdb_80398=T pbc="F F F"
C        0.29040000       1.44220000      -0.02840000
C        0.03910000      -0.05430000      -0.01210000
C       -1.44140000      -0.42690000       0.04450000
O        0.65970000      -0.63760000      -1.16190000
C        1.16720000      -1.88760000      -0.77760000
C        2.48150000      -1.87740000      -0.00110000
O        3.26730000      -0.74150000       0.08720000
C        1.15470000      -1.91540000       0.72760000
O        0.73250000      -0.62710000       1.11840000
H        1.35980000       1.63430000      -0.13820000
H       -0.23210000       1.89980000      -0.87180000
H       -0.06960000       1.89670000       0.89780000
H       -1.96040000      -0.04170000      -0.83700000
H       -1.55560000      -1.51400000       0.06670000
H       -1.90590000      -0.00890000       0.94170000
H        0.88170000      -2.72320000      -1.40800000
H        3.06180000      -2.79620000      -0.03400000
H        2.78820000      -0.13060000       0.66420000
H        0.81570000      -2.73220000       1.35580000
