20
Properties=species:S:1:pos:R:3 gdb_28424=T pbc="F F F"
C       -0.04620000       1.50720000       0.04160000
C       -0.02360000       0.00160000      -0.02200000
C       -0.08340000      -0.68750000      -1.23050000
C       -0.05800000      -2.07770000      -1.21030000
C        0.02570000      -2.75910000      -0.00090000
C        0.05510000      -4.26470000       0.05250000
C        0.08160000      -1.97720000       1.17050000
C        0.17360000      -2.62310000       2.53010000
N        0.05730000      -0.64220000       1.15170000
H        0.85700000       1.88290000       0.53330000
H       -0.11230000       1.95310000      -0.95400000
H       -0.89820000       1.85230000       0.63620000
H       -0.14850000      -0.14700000      -2.16860000
H       -0.10350000      -2.63740000      -2.14060000
H        0.97040000      -4.63690000       0.52770000
H       -0.78420000      -4.66750000       0.63190000
H        0.00290000      -4.69340000      -0.95190000
H        1.07100000      -3.24720000       2.61950000
H        0.20570000      -1.84870000       3.29710000
H       -0.68460000      -3.27780000       2.72380000
