18
Properties=species:S:1:pos:R:3 gdb_8036=T pbc="F F F"
C       -0.65600000       1.32360000       0.00360000
C        0.04490000      -0.02600000       0.01400000
C        1.23840000      -0.25340000      -0.97620000
C        2.16100000      -0.64350000       0.21060000
O        2.95190000      -1.78490000       0.13140000
C        2.85540000       0.53870000       0.89400000
O        1.68610000       0.82310000       1.69770000
C        0.98570000      -0.33930000       1.20860000
H        0.05790000       2.12720000       0.20260000
H       -1.13220000       1.51160000      -0.96450000
H       -1.43230000       1.37120000       0.77490000
H       -0.68780000      -0.83410000      -0.09230000
H        1.07370000      -1.07570000      -1.68040000
H        1.56380000       0.62100000      -1.54810000
H        2.47600000      -2.45850000      -0.36490000
H        3.70440000       0.22590000       1.51440000
H        3.15010000       1.38510000       0.26200000
H        0.63000000      -0.98360000       2.01740000
