20
Properties=species:S:1:pos:R:3 gdb_81800=T pbc="F F F"
C       -0.12980000       1.54880000      -0.03590000
C        0.01250000       0.03140000       0.00070000
C        1.13760000      -0.55570000      -0.87800000
N        1.27900000      -1.99040000      -0.67140000
C        1.88360000      -1.09420000       0.31990000
C        3.34120000      -1.22390000       0.64170000
C        0.79210000      -0.53400000       1.21390000
C        0.88790000      -0.00620000       2.57380000
O        0.21910000      -1.24750000       2.30300000
H        0.83280000       2.04170000       0.13810000
H       -0.50520000       1.88070000      -1.00970000
H       -0.83170000       1.89990000       0.72720000
H       -0.95990000      -0.44890000      -0.16320000
H        1.52810000      -0.11910000      -1.79070000
H        0.41990000      -2.42660000      -0.33950000
H        3.89870000      -1.51740000      -0.25110000
H        3.75110000      -0.28110000       1.01890000
H        3.50320000      -1.99310000       1.40580000
H        1.82290000      -0.09320000       3.12640000
H        0.24350000       0.81460000       2.88630000
