18
Properties=species:S:1:pos:R:3 gdb_71078=T pbc="F F F"
C       -0.12740000       1.47490000      -0.04320000
C       -0.00480000      -0.01480000      -0.09460000
C        1.00480000      -0.84560000      -0.89890000
C        0.16610000      -2.08250000      -0.46820000
C        0.35310000      -2.04900000       1.04020000
O        0.72480000      -2.80210000       1.88520000
N       -0.32150000      -0.76740000       1.19360000
C       -1.01920000      -1.08120000      -0.14460000
C       -2.50000000      -1.17300000      -0.27170000
H        0.74530000       1.91580000       0.44960000
H       -0.19340000       1.88830000      -1.05530000
H       -1.01680000       1.77460000       0.51660000
H        0.91250000      -0.63490000      -1.96780000
H        2.05940000      -0.82760000      -0.60330000
H        0.14350000      -3.00630000      -1.04000000
H       -2.97500000      -0.30590000       0.19550000
H       -2.80120000      -1.20800000      -1.32400000
H       -2.88020000      -2.07390000       0.22110000
