18
Properties=species:S:1:pos:R:3 gdb_52254=T pbc="F F F"
O       -0.23930000       0.62360000      -0.85710000
C        0.01100000       1.39710000       0.04350000
N        1.21710000       1.52630000       0.65590000
C        2.39670000       0.77840000       0.25860000
C        3.52170000       1.72890000      -0.11450000
O        3.83090000       2.67370000       0.95960000
C        5.22160000       2.34580000       0.85610000
C        5.46570000       0.92370000       1.23620000
C        4.97370000       1.25600000      -0.16120000
H       -0.74050000       2.08930000       0.47200000
H        1.33610000       2.23400000       1.36430000
H        2.71440000       0.11170000       1.06800000
H        2.11310000       0.16460000      -0.60010000
H        3.24920000       2.29750000      -1.01200000
H        5.93760000       3.15720000       0.90710000
H        6.50830000       0.62280000       1.27160000
H        4.82680000       0.44360000       1.97090000
H        5.51750000       0.99010000      -1.05670000
