12
Properties=species:S:1:pos:R:3 gdb_21125=T pbc="F F F"
C        0.02790000       1.44500000      -0.10000000
N       -0.01190000      -0.00260000      -0.14070000
C       -1.09350000      -0.63810000       0.05730000
C       -1.14780000      -2.08400000       0.01950000
N       -2.21530000      -2.77020000       0.21290000
O       -3.36900000      -2.07150000       0.47040000
N       -3.38160000      -0.61270000       0.52220000
N       -2.34520000       0.00860000       0.33300000
H        0.76160000       1.74450000       0.65700000
H        0.41300000       1.80250000      -1.06180000
H       -0.93130000       1.92660000       0.11070000
H       -0.24200000      -2.64690000      -0.18320000
