11
Properties=species:S:1:pos:R:3 gdb_130615=T pbc="F F F"
O       -0.02660000      -0.01510000      -0.22780000
C        0.00620000       1.18340000      -0.04340000
C       -1.22490000       1.98010000       0.18170000
N       -1.32080000       3.24340000       0.38580000
O       -0.12080000       3.96620000       0.39860000
C        1.04490000       3.35580000       0.20710000
C        1.20400000       2.02500000      -0.01270000
C        2.50250000       1.47550000      -0.20600000
N        3.56050000       1.03440000      -0.36250000
H       -2.17410000       1.45040000       0.17800000
H        1.86560000       4.06390000       0.24880000
