16
Properties=species:S:1:pos:R:3 gdb_67756=T pbc="F F F"
C        0.02100000       1.56820000       0.04270000
C       -0.04060000       0.06060000       0.04770000
C       -1.38490000      -0.62530000      -0.04990000
C       -1.29350000      -1.82980000       0.50940000
C        0.08190000      -1.97260000       1.08340000
C        1.28180000      -1.65690000       0.22180000
N        0.68540000      -0.64610000       1.22090000
C        0.94620000      -0.70770000      -0.87770000
O        1.44850000      -0.44770000      -1.93400000
H        1.04920000       1.91410000       0.17450000
H       -0.34650000       1.95300000      -0.91340000
H       -0.59290000       1.98500000       0.84640000
H       -2.21890000      -0.21500000      -0.60410000
H       -2.04690000      -2.60450000       0.55090000
H        0.27250000      -2.66130000       1.90250000
H        2.24160000      -2.13920000       0.36800000
