23
Properties=species:S:1:pos:R:3 gdb_116315=T pbc="F F F"
C        0.09320000       1.56950000       0.05500000
C        0.01590000       0.04150000      -0.02600000
C       -1.41450000      -0.52450000      -0.04560000
C       -2.24260000      -0.06850000      -1.26270000
C       -3.52480000      -0.88970000      -1.37330000
O       -3.24140000      -2.25590000      -1.63920000
C       -2.41170000      -2.87100000      -0.69390000
C       -0.94440000      -2.96910000      -1.02230000
C       -1.41850000      -2.04420000       0.08260000
H        1.13250000       1.90500000       0.12560000
H       -0.34600000       2.04780000      -0.82600000
H       -0.43720000       1.94740000       0.93680000
H        0.54870000      -0.30990000      -0.91890000
H        0.54750000      -0.39120000       0.83140000
H       -1.93460000      -0.14170000       0.84620000
H       -2.49160000       0.99430000      -1.17480000
H       -1.66880000      -0.18920000      -2.19080000
H       -4.11960000      -0.78790000      -0.45010000
H       -4.14290000      -0.55150000      -2.21000000
H       -2.89600000      -3.71000000      -0.19850000
H       -0.39620000      -3.86320000      -0.74560000
H       -0.64810000      -2.53110000      -1.96930000
H       -1.20940000      -2.39590000       1.08970000
