16
Properties=species:S:1:pos:R:3 gdb_67005=T pbc="F F F"
O       -0.01620000       1.34120000      -0.01800000
C       -0.04950000      -0.03610000       0.01530000
C       -0.50010000      -0.78410000      -1.26030000
C       -0.23360000      -2.28130000      -1.18960000
C       -0.70080000      -2.22630000       0.30870000
N        0.42540000      -1.94640000       1.20010000
C        0.93860000      -0.70170000       0.92680000
O        1.95380000      -0.18490000       1.34970000
C       -1.32240000      -0.82330000       0.02110000
H        0.83880000       1.57520000       0.37490000
H       -0.67030000      -0.17890000      -2.14190000
H       -0.95120000      -2.83270000      -1.80400000
H        0.77780000      -2.65990000      -1.37430000
H       -1.33050000      -3.02970000       0.68470000
H        1.04570000      -2.67940000       1.51260000
H       -2.30550000      -0.44710000       0.26890000
