19
Properties=species:S:1:pos:R:3 gdb_49710=T pbc="F F F"
O       -0.80030000       0.95630000       0.44390000
C        0.13890000       1.04500000      -0.30880000
C        1.30080000       1.98960000      -0.16770000
C        1.21120000       3.28770000      -1.03380000
C        0.02120000       4.03020000      -0.38200000
C        0.21890000       3.72830000       1.13860000
C        1.45460000       2.81050000       1.12660000
O        2.61070000       3.60990000       0.83130000
C        2.50650000       3.96870000      -0.55920000
H        0.20270000       0.38870000      -1.20800000
H        2.21710000       1.43510000      -0.40410000
H        1.14730000       3.15490000      -2.11480000
H        0.04460000       5.09870000      -0.61210000
H       -0.93270000       3.63660000      -0.74290000
H        0.43310000       4.62450000       1.72480000
H       -0.64580000       3.21930000       1.56610000
H        1.64700000       2.25930000       2.04670000
H        3.39420000       3.60730000      -1.09480000
H        2.45960000       5.05990000      -0.66380000
