16
Properties=species:S:1:pos:R:3 gdb_87548=T pbc="F F F"
C       -0.09900000       1.50170000      -0.00070000
N        0.01200000       0.04870000       0.05280000
C        1.32230000      -0.53780000      -0.18660000
C        0.71750000      -0.51770000       1.17670000
C        1.25770000       0.14090000       2.44100000
O        0.15030000       0.22970000       3.33920000
C        0.86870000      -1.02090000       3.28060000
C        0.32200000      -1.73340000       2.03360000
O       -0.08570000      -2.82880000       1.79540000
H        0.81240000       2.02570000       0.32970000
H       -0.31340000       1.80110000      -1.03050000
H       -0.93030000       1.81820000       0.63500000
H        1.33560000      -1.46490000      -0.75290000
H        2.16710000       0.13020000      -0.35800000
H        2.09350000       0.81310000       2.58670000
H        1.29970000      -1.40410000       4.19710000
