19
Properties=species:S:1:pos:R:3 gdb_89443=T pbc="F F F"
O       -0.03650000       1.45180000      -0.05400000
C        0.02750000       0.03010000       0.03010000
C        0.69900000      -0.49960000       1.32880000
C       -0.48350000      -0.90310000       2.22020000
O       -0.17890000      -1.72760000       3.31240000
C       -1.43120000       0.32050000       2.47260000
C       -2.26710000      -0.15170000       1.28270000
C       -1.38750000      -0.52880000       0.10020000
C       -1.54720000      -1.48600000       1.24610000
H        0.85760000       1.77930000      -0.19460000
H        0.54430000      -0.36830000      -0.85430000
H        1.30540000      -1.38750000       1.11750000
H        1.34350000       0.26100000       1.78510000
H        0.38670000      -1.23130000       3.91380000
H       -1.97010000       0.17490000       3.41270000
H       -0.99470000       1.32230000       2.42860000
H       -3.32030000       0.05090000       1.12960000
H       -1.91860000      -0.71930000      -0.82530000
H       -1.90850000      -2.50440000       1.20430000
