15
Properties=species:S:1:pos:R:3 gdb_47391=T pbc="F F F"
O       -0.06610000       0.13450000       0.76010000
C       -0.07070000       1.15240000       0.13840000
O       -1.22780000       1.76590000      -0.17950000
C       -1.28440000       2.95710000      -0.98030000
C       -0.04190000       3.80280000      -0.78810000
C        1.16790000       2.90890000      -1.06030000
O        1.10300000       1.73390000      -0.22270000
C        1.28530000       2.52700000      -2.46750000
C        1.37550000       2.22560000      -3.62680000
H       -1.39410000       2.66520000      -2.03070000
H       -2.19170000       3.47670000      -0.66560000
H       -0.04690000       4.65640000      -1.47030000
H        0.01540000       4.17550000       0.23940000
H        2.09090000       3.40610000      -0.74690000
H        1.46740000       1.95060000      -4.64910000
