23
Properties=species:S:1:pos:R:3 gdb_68470=T pbc="F F F"
C        0.01790000       1.68500000       0.08330000
C        0.01340000       0.16030000       0.10850000
C        0.97220000      -0.56850000      -0.89410000
C        1.32490000      -1.58300000       0.22880000
C        0.82600000      -0.52620000       1.25630000
C        0.50490000      -2.88480000       0.17730000
C       -0.95950000      -2.80570000       0.66090000
C       -1.79620000      -1.63560000       0.19540000
C       -1.39370000      -0.38040000      -0.01060000
H        1.03750000       2.07730000       0.15530000
H       -0.42330000       2.06570000      -0.84560000
H       -0.56130000       2.09700000       0.91800000
H        0.52420000      -0.96230000      -1.81030000
H        1.82950000       0.06110000      -1.15460000
H        2.38650000      -1.83710000       0.29710000
H        1.64180000       0.12030000       1.59390000
H        0.27060000      -0.86950000       2.13220000
H        0.52490000      -3.25860000      -0.85450000
H        1.00520000      -3.64880000       0.78470000
H       -1.46250000      -3.73450000       0.36780000
H       -0.97110000      -2.81930000       1.76050000
H       -2.85360000      -1.85250000       0.05700000
H       -2.14250000       0.34470000      -0.32550000
