18
Properties=species:S:1:pos:R:3 gdb_72418=T pbc="F F F"
C       -0.07050000       1.45510000       0.07780000
C        0.03580000      -0.04000000      -0.02090000
C        0.73800000      -0.67850000      -1.24360000
C        1.05620000      -2.09600000      -0.68520000
C        0.42120000      -1.98660000       0.72470000
O        0.70210000      -0.62090000       1.08040000
C       -1.08180000      -1.90960000       0.52940000
N       -1.93910000      -2.81000000       0.73080000
O       -1.29660000      -0.64580000       0.04670000
H        0.92930000       1.89560000       0.09430000
H       -0.61700000       1.85150000      -0.78120000
H       -0.59830000       1.73120000       0.99300000
H        0.08000000      -0.68910000      -2.11410000
H        1.64360000      -0.12250000      -1.49590000
H        0.62450000      -2.90830000      -1.27250000
H        2.13140000      -2.26210000      -0.59560000
H        0.76250000      -2.67990000       1.48750000
H       -2.87450000      -2.48550000       0.47900000
