23
Properties=species:S:1:pos:R:3 gdb_64288=T pbc="F F F"
C       -0.36390000       1.66830000       0.18330000
C        0.07390000       0.21150000       0.06260000
C       -1.14760000      -0.68580000      -0.20660000
O        0.99880000       0.13850000      -1.03930000
C        1.74290000      -1.06900000      -0.91310000
C        1.91490000      -1.33110000       0.59270000
C        3.07790000      -0.57850000       1.29360000
C        2.08350000       0.51260000       1.77400000
C        0.89130000      -0.34020000       1.24590000
H        0.49410000       2.33350000       0.29800000
H       -0.90710000       1.97280000      -0.71610000
H       -1.02710000       1.80070000       1.04380000
H       -1.60350000      -0.41830000      -1.16440000
H       -0.87560000      -1.74510000      -0.24190000
H       -1.89850000      -0.56320000       0.58040000
H        1.21350000      -1.90560000      -1.39370000
H        2.69160000      -0.92660000      -1.44100000
H        1.82840000      -2.39290000       0.83200000
H        3.51910000      -1.15140000       2.11310000
H        3.88690000      -0.24020000       0.63940000
H        2.07660000       0.70940000       2.84850000
H        2.20420000       1.46430000       1.25340000
H        0.25590000      -0.75220000       2.03230000
