23
Properties=species:S:1:pos:R:3 gdb_58278=T pbc="F F F"
C        0.01360000       1.45850000       0.30560000
C       -0.13880000      -0.00700000      -0.12990000
C       -1.60510000      -0.33650000      -0.44120000
C        0.75720000      -0.37870000      -1.33350000
O        0.41790000       0.35890000      -2.50770000
C        2.26970000      -0.28110000      -1.02950000
C        3.08280000      -0.97180000      -2.12360000
C        3.57060000      -0.10640000      -3.26610000
O        3.28010000      -2.16470000      -2.08020000
H        1.04210000       1.70860000       0.58340000
H       -0.30480000       2.14960000      -0.48510000
H       -0.61960000       1.66510000       1.17350000
H        0.18810000      -0.64240000       0.70410000
H       -1.95030000       0.22940000      -1.31160000
H       -1.73230000      -1.40050000      -0.66540000
H       -2.25150000      -0.09110000       0.40730000
H        0.54460000      -1.42120000      -1.59710000
H        0.53530000       1.29500000      -2.31200000
H        2.56100000       0.77040000      -0.92520000
H        2.47760000      -0.79760000      -0.08770000
H        4.22510000       0.68960000      -2.89220000
H        4.10550000      -0.71190000      -3.99860000
H        2.70430000       0.37680000      -3.73100000
