23
Properties=species:S:1:pos:R:3 gdb_42023=T pbc="F F F"
C       -0.04310000       1.56000000      -0.05830000
C        1.44550000       2.02500000      -0.03240000
C        2.20090000       0.81790000       0.53750000
C        3.70290000       0.66740000       0.31670000
C        4.12810000      -0.71740000       0.83480000
O        3.38320000      -1.77700000       0.25500000
C        1.98280000      -1.67800000       0.48600000
C        1.45110000      -0.37010000      -0.08470000
C       -0.02050000       0.00880000       0.12260000
H       -0.61970000       2.03480000       0.74040000
H       -0.52450000       1.84280000      -0.99840000
H        1.79850000       2.23420000      -1.04950000
H        1.59140000       2.93890000       0.55090000
H        2.01510000       0.78340000       1.62410000
H        3.93670000       0.74460000      -0.75290000
H        4.27770000       1.44400000       0.83610000
H        5.17550000      -0.92490000       0.59720000
H        4.02130000      -0.74120000       1.93390000
H        1.53750000      -2.55620000       0.00790000
H        1.76630000      -1.73430000       1.56820000
H        1.67040000      -0.37500000      -1.16280000
H       -0.33530000      -0.26090000       1.13820000
H       -0.69690000      -0.50400000      -0.56700000
