20
Properties=species:S:1:pos:R:3 gdb_9405=T pbc="F F F"
C       -0.04270000       1.44720000      -0.01630000
C       -0.07470000      -0.06070000       0.16630000
O       -1.40610000      -0.50710000       0.00270000
C       -1.54800000      -1.90310000       0.15240000
C       -3.01600000      -2.25630000      -0.06430000
C       -3.51750000      -1.89440000      -1.47460000
C       -3.28800000      -3.71620000       0.22500000
O       -2.46260000      -4.52060000       0.57790000
H        0.97710000       1.82440000       0.10470000
H       -0.39800000       1.72060000      -1.01400000
H       -0.68420000       1.93700000       0.72180000
H        0.58360000      -0.55470000      -0.56830000
H        0.29760000      -0.33840000       1.16690000
H       -0.91900000      -2.44200000      -0.57530000
H       -1.22400000      -2.22700000       1.15300000
H       -3.61910000      -1.68430000       0.65830000
H       -4.58110000      -2.12520000      -1.59120000
H       -3.37060000      -0.82790000      -1.65270000
H       -2.96330000      -2.44890000      -2.23970000
H       -4.35150000      -4.01760000       0.07590000
