18
Properties=species:S:1:pos:R:3 gdb_109570=T pbc="F F F"
C       -0.01170000       1.36850000       0.23860000
N       -0.11600000      -0.04290000      -0.12270000
C       -1.48830000      -0.54370000      -0.17740000
C       -1.44000000      -2.05980000      -0.57930000
O       -0.40750000      -2.46540000      -1.43000000
C       -1.26210000      -2.44470000       0.93250000
O        0.10520000      -2.63040000       1.25180000
C       -1.81820000      -1.02730000       1.25500000
O       -2.34700000      -0.53160000       2.20590000
H        1.04010000       1.66660000       0.24180000
H       -0.56400000       2.03230000      -0.44570000
H       -0.41240000       1.51790000       1.24540000
H        0.32450000      -0.23650000      -1.01770000
H       -2.20020000       0.11890000      -0.69050000
H       -2.40560000      -2.38620000      -0.97840000
H        0.27620000      -2.83040000      -0.84680000
H       -1.81750000      -3.30180000       1.31820000
H        0.52670000      -1.76760000       1.09490000
