20
Properties=species:S:1:pos:R:3 gdb_85299=T pbc="F F F"
C       -0.15840000       1.55730000       0.00910000
C        0.03510000       0.03810000       0.02950000
N        0.75420000      -0.42120000      -1.15910000
C        1.87760000      -1.20880000      -1.13490000
O        2.43390000      -1.59810000      -2.14280000
C        2.34090000      -1.52520000       0.28040000
C        1.10660000      -1.97030000       1.11930000
C        0.79670000      -0.45540000       1.26870000
C        2.32430000      -0.20900000       1.11120000
H        0.80200000       2.07980000       0.04420000
H       -0.67940000       1.87170000      -0.90140000
H       -0.76130000       1.87760000       0.86490000
H       -0.96130000      -0.43140000       0.04640000
H        0.39790000      -0.19070000      -2.07500000
H        3.23530000      -2.14440000       0.24400000
H        0.35850000      -2.60650000       0.63800000
H        1.41060000      -2.41680000       2.06920000
H        0.29860000      -0.10860000       2.17650000
H        2.84710000      -0.33280000       2.06280000
H        2.66490000       0.70850000       0.62570000
