20
Properties=species:S:1:pos:R:3 gdb_102188=T pbc="F F F"
C        1.03240000       1.30890000       0.31710000
O        0.09440000       0.37040000      -0.18370000
C        0.57020000      -0.47970000      -1.20880000
C        0.82830000      -1.89650000      -0.63430000
C        1.89140000      -1.92790000       0.36620000
N        2.74340000      -1.94010000       1.14720000
C       -0.45590000      -0.55890000      -2.32570000
C       -1.93170000      -0.52140000      -2.01440000
C       -1.27190000       0.64650000      -2.70540000
H        1.89490000       0.81860000       0.78340000
H        1.38820000       1.98260000      -0.47560000
H        0.50960000       1.89980000       1.07290000
H        1.51520000      -0.08930000      -1.61390000
H       -0.10070000      -2.25960000      -0.18340000
H        1.09160000      -2.58480000      -1.44530000
H       -0.14910000      -1.20990000      -3.14020000
H       -2.59310000      -1.16090000      -2.58770000
H       -2.21750000      -0.37690000      -0.97920000
H       -1.13240000       1.54550000      -2.11720000
H       -1.47480000       0.81340000      -3.75720000
