19
Properties=species:S:1:pos:R:3 gdb_13597=T pbc="F F F"
C       -0.29840000       1.68980000      -0.05030000
C       -0.37580000       0.18580000      -0.29400000
C        0.91510000      -0.41040000      -0.84220000
O        1.87870000       0.27310000      -1.10670000
C        0.90560000      -1.90510000      -1.00090000
N        1.84780000      -2.50070000      -1.96790000
C        2.05680000      -2.77160000      -0.55160000
C        3.31270000      -2.22740000       0.08170000
H        0.48230000       1.92700000       0.67710000
H       -0.05090000       2.21970000      -0.97330000
H       -1.25130000       2.07170000       0.32660000
H       -0.63570000      -0.35770000       0.62580000
H       -1.18020000      -0.06100000      -1.00250000
H       -0.08030000      -2.35820000      -0.91180000
H        1.40220000      -3.28860000      -2.43070000
H        1.74730000      -3.75060000      -0.18370000
H        3.54420000      -1.23980000      -0.31800000
H        3.19950000      -2.15770000       1.16890000
H        4.15370000      -2.89720000      -0.12730000
