19
Properties=species:S:1:pos:R:3 gdb_115663=T pbc="F F F"
C        0.20990000       1.59410000      -0.22390000
C        0.09940000       0.15470000      -0.04010000
C        0.01300000      -1.03610000       0.12160000
C       -0.06580000      -2.47510000       0.30510000
O       -0.20800000      -2.88840000       1.68980000
C       -1.31760000      -3.75670000       1.36500000
C       -1.37580000      -3.22770000      -0.07990000
C       -2.58030000      -2.36530000      -0.40100000
O       -3.70230000      -3.23500000      -0.46880000
H        1.09960000       1.85490000      -0.80730000
H       -0.66340000       1.99910000      -0.74690000
H        0.28430000       2.10600000       0.74180000
H        0.82280000      -2.94600000      -0.13950000
H       -1.04880000      -4.81560000       1.46370000
H       -2.19820000      -3.55070000       1.98320000
H       -1.24910000      -3.98300000      -0.85800000
H       -2.70800000      -1.60140000       0.38070000
H       -2.41840000      -1.83620000      -1.35270000
H       -4.48940000      -2.70030000      -0.60670000
