21
Properties=species:S:1:pos:R:3 gdb_115312=T pbc="F F F"
C        0.00420000       1.60960000       0.03750000
C        0.03980000       0.08080000       0.06410000
C       -1.36360000      -0.53840000      -0.00210000
O       -2.05420000      -0.22930000      -1.20980000
C       -1.94380000      -1.34030000      -2.10320000
C       -1.98600000      -2.59010000      -1.21760000
C       -1.35720000      -3.86700000      -1.76410000
C       -1.31080000      -2.06870000       0.05350000
O       -0.80000000      -2.72760000       0.92170000
H        1.01540000       2.02710000       0.04440000
H       -0.50920000       1.96570000      -0.85980000
H       -0.52890000       2.00590000       0.90880000
H        0.63790000      -0.29610000      -0.77520000
H        0.51730000      -0.28850000       0.97870000
H       -1.96640000      -0.15970000       0.83410000
H       -2.76910000      -1.26990000      -2.81540000
H       -0.99850000      -1.30200000      -2.66860000
H       -3.03340000      -2.77740000      -0.93790000
H       -0.33800000      -3.68140000      -2.11910000
H       -1.30190000      -4.62170000      -0.97530000
H       -1.93790000      -4.27400000      -2.59680000
