19
Properties=species:S:1:pos:R:3 gdb_89600=T pbc="F F F"
C       -0.25530000       1.50520000       0.14910000
N        0.06080000       0.08970000       0.09200000
C        1.04110000      -0.39150000      -0.92310000
C        1.83610000      -1.09330000       0.18580000
C        2.39230000      -2.49290000       0.09950000
C        3.60500000      -2.56220000      -0.72270000
N        4.55550000      -2.59960000      -1.37850000
C        2.29290000      -0.06020000       1.18500000
C        0.84620000      -0.50010000       1.17190000
H        0.62390000       2.16340000       0.26240000
H       -0.78050000       1.79640000      -0.76620000
H       -0.92720000       1.69010000       0.99370000
H        0.57670000      -1.06690000      -1.65050000
H        1.58450000       0.39460000      -1.46320000
H        2.63240000      -2.87060000       1.10000000
H        1.64920000      -3.17820000      -0.32640000
H        2.88010000      -0.44600000       2.01330000
H        2.58560000       0.93270000       0.85520000
H        0.36080000      -0.94280000       2.03640000
