20
Properties=species:S:1:pos:R:3 gdb_94988=T pbc="F F F"
C       -0.20480000       1.56870000       0.02810000
C        0.03540000       0.05900000      -0.03590000
O        0.68860000      -0.33850000      -1.24390000
C        2.07290000      -0.04110000      -1.34360000
C        2.87300000      -0.15130000      -0.05960000
C        2.24460000       0.06720000       1.25410000
C        0.81130000      -0.48030000       1.16830000
C        1.47040000      -1.86520000       0.93690000
N        2.85830000      -1.27640000       0.90580000
H        0.73540000       2.12180000       0.12000000
H       -0.71690000       1.90910000      -0.87590000
H       -0.82740000       1.82050000       0.89300000
H       -0.93280000      -0.45280000      -0.09240000
H        2.46550000      -0.72720000      -2.10280000
H        2.22340000       0.98320000      -1.72480000
H        3.88800000       0.22260000      -0.17660000
H        2.65100000       0.70620000       2.03110000
H        0.22820000      -0.39720000       2.08690000
H        1.39990000      -2.52200000       1.80650000
H        1.18380000      -2.41320000       0.03660000
