20
Properties=species:S:1:pos:R:3 gdb_74397=T pbc="F F F"
C       -0.00010000       1.51940000       0.03220000
C        0.01050000       0.02130000      -0.03000000
C        0.01150000      -0.70550000      -1.14960000
C        0.01700000      -2.22030000      -1.02890000
O       -0.05190000      -2.90570000      -2.24840000
C       -1.01750000      -2.59860000       0.05100000
N        0.01200000      -2.22750000       1.09220000
C        1.05860000      -2.58880000       0.06700000
C        0.00770000      -0.76300000       1.27700000
H        0.87630000       1.90140000       0.57170000
H       -0.00420000       1.96430000      -0.96670000
H       -0.88120000       1.88860000       0.57290000
H       -0.01140000      -0.26170000      -2.14230000
H        0.58640000      -2.51570000      -2.85570000
H       -1.95520000      -2.03890000       0.08660000
H       -1.21120000      -3.67430000       0.09720000
H        1.26470000      -3.66230000       0.11550000
H        1.98830000      -2.01560000       0.11900000
H        0.88070000      -0.49060000       1.88620000
H       -0.87330000      -0.49350000       1.87590000
