22
Properties=species:S:1:pos:R:3 gdb_100265=T pbc="F F F"
C       -0.00020000       1.52200000       0.26570000
C       -0.03350000       0.02090000      -0.04450000
C        0.71670000      -0.45540000      -1.31420000
C        2.14180000       0.13580000      -1.38750000
C        0.79950000      -2.00490000      -1.23650000
N        1.51540000      -2.60040000      -2.38340000
H        0.85110000      -1.43460000      -3.48830000
H        2.51970000      -2.55560000      -2.24870000
H        1.27130000      -3.57850000      -2.49120000
C       -0.05460000      -0.01610000      -2.58710000
O       -0.87880000       0.86370000      -2.58940000
O        0.27280000      -0.65800000      -3.71560000
H        1.01390000       1.87260000       0.48090000
H       -0.40400000       2.09850000      -0.56690000
H       -0.60700000       1.72740000       1.15340000
H        0.38670000      -0.52390000       0.81200000
H       -1.07790000      -0.29840000      -0.13300000
H        2.71310000      -0.13140000      -0.49050000
H        2.68530000      -0.22550000      -2.26520000
H        2.11180000       1.22510000      -1.45530000
H        1.26140000      -2.27730000      -0.27750000
H       -0.21520000      -2.41680000      -1.23220000
