20
Properties=species:S:1:pos:R:3 gdb_11830=T pbc="F F F"
C       -0.75470000       1.19460000      -0.07810000
C        0.16070000      -0.01900000      -0.01300000
C        1.54330000       0.05130000      -0.73430000
C        2.13660000      -0.67840000       0.46880000
C        3.01080000      -1.85100000       0.49660000
O        3.47530000      -0.55880000       0.91710000
C        0.89850000      -0.38270000       1.32910000
C        1.11180000       0.75440000       2.32650000
H       -0.24690000       2.10610000       0.25250000
H       -1.09780000       1.36350000      -1.10490000
H       -1.64320000       1.06090000       0.54900000
H       -0.38540000      -0.90140000      -0.36260000
H        1.63450000      -0.41990000      -1.71600000
H        1.91940000       1.07780000      -0.80120000
H        2.90560000      -2.58960000       1.29100000
H        3.45020000      -2.22440000      -0.42820000
H        0.48170000      -1.25130000       1.84940000
H        1.54460000       1.64020000       1.85100000
H        0.16940000       1.04930000       2.79860000
H        1.80460000       0.43960000       3.11240000
