18
Properties=species:S:1:pos:R:3 gdb_1240=T pbc="F F F"
C        0.08150000       1.56380000       0.01530000
C        0.00390000       0.03020000       0.03010000
C        0.74200000      -0.53630000       1.25080000
C       -1.44450000      -0.48910000       0.00420000
C       -2.20960000      -0.12940000      -1.28650000
C       -3.55150000      -0.70690000      -1.31640000
N       -4.60950000      -1.17180000      -1.32310000
H        1.12270000       1.89870000       0.05550000
H       -0.36370000       1.99740000      -0.88560000
H       -0.43680000       1.98890000       0.88310000
H        0.50850000      -0.34500000      -0.87250000
H        0.27490000      -0.19700000       2.18290000
H        0.73220000      -1.63100000       1.25230000
H        1.78640000      -0.20890000       1.26540000
H       -1.44030000      -1.57930000       0.11080000
H       -1.99450000      -0.09480000       0.86750000
H       -2.30300000       0.95600000      -1.39680000
H       -1.65920000      -0.48850000      -2.16450000
