15
Properties=species:S:1:pos:R:3 gdb_9707=T pbc="F F F"
C        0.02950000       1.49590000       0.06890000
C       -0.03080000      -0.04040000      -0.01170000
C        0.77710000      -0.60180000      -1.23740000
N        2.00770000      -1.04300000      -0.57500000
C        1.71930000      -1.13830000       0.77040000
N        0.63050000      -0.61670000       1.18960000
C       -1.43320000      -0.48090000      -0.06690000
N       -2.53510000      -0.81960000      -0.14510000
H        1.07580000       1.81330000       0.06210000
H       -0.48840000       1.95220000      -0.77950000
H       -0.43390000       1.83870000       0.99590000
H        0.25310000      -1.43430000      -1.72000000
H        0.97300000       0.17190000      -1.98400000
H        2.57070000      -1.75830000      -1.01020000
H        2.44160000      -1.60560000       1.43370000
