16
Properties=species:S:1:pos:R:3 gdb_29540=T pbc="F F F"
O       -0.00560000      -0.01640000      -0.00500000
C       -0.02550000       1.22820000       0.00780000
C       -1.08770000       2.16760000       0.01430000
O       -0.65040000       3.51010000      -0.00140000
C        0.67030000       3.43290000       0.00640000
C        1.14000000       2.15940000       0.01470000
C        2.61570000       2.14780000       0.00090000
N        2.90740000       3.62910000      -0.42270000
H        3.78970000       3.98120000      -0.04440000
H        2.96650000       3.64880000      -1.44000000
C        1.70740000       4.49240000       0.00280000
H       -2.15710000       2.05280000      -0.01600000
H        3.11450000       2.01000000       0.97050000
H        3.10250000       1.49760000      -0.73280000
H        1.59040000       5.31150000      -0.71510000
H        1.96930000       4.92620000       0.98070000
