18
Properties=species:S:1:pos:R:3 gdb_131852=T pbc="F F F"
O       -0.01360000       1.40210000      -0.23790000
C       -0.02250000       0.01690000       0.09270000
C       -1.46940000      -0.44590000       0.06410000
N       -2.01640000      -0.24690000      -1.26800000
C       -3.36750000      -0.54440000      -1.46550000
C       -4.18110000      -0.13030000      -2.50740000
N       -5.39090000      -0.72130000      -2.30020000
N       -5.42920000      -1.48690000      -1.20480000
C       -4.20360000      -1.38480000      -0.68760000
H        0.89640000       1.67500000      -0.38380000
H        0.55950000      -0.56560000      -0.63590000
H        0.39880000      -0.15820000       1.09380000
H       -1.50030000      -1.51230000       0.31770000
H       -2.03750000       0.09280000       0.84220000
H       -1.75680000       0.66880000      -1.61140000
H       -3.99350000       0.51420000      -3.35090000
H       -6.21770000      -0.63400000      -2.86500000
H       -3.96240000      -1.91550000       0.22070000
