12
Properties=species:S:1:pos:R:3 gdb_10674=T pbc="F F F"
N        0.22800000       0.81780000       0.88350000
C       -0.04210000       0.10630000      -0.23990000
O        0.64390000       0.06010000      -1.23570000
C       -1.31920000      -0.72390000      -0.13000000
C       -1.42480000      -1.75250000       0.93310000
O       -2.13470000      -0.52170000       1.03040000
C       -2.03140000      -0.92930000      -1.37540000
N       -2.62350000      -1.09720000      -2.35230000
H        1.01930000       1.44060000       0.86830000
H       -0.48870000       0.93970000       1.58050000
H       -2.03690000      -2.63220000       0.75090000
H       -0.58820000      -1.87080000       1.61790000
