14
Properties=species:S:1:pos:R:3 gdb_23913=T pbc="F F F"
N       -0.21080000       1.41510000      -0.16360000
C       -0.05490000      -0.00500000      -0.00320000
C       -0.38830000      -0.59290000       1.34370000
C       -1.30630000      -0.82620000       0.17080000
C        1.08660000      -0.62340000      -0.77360000
F        2.26440000      -0.07750000      -0.41550000
F        1.18540000      -1.94920000      -0.58720000
F        0.94880000      -0.41190000      -2.09640000
H        0.63540000       1.89600000       0.12870000
H       -0.35970000       1.64310000      -1.14270000
H        0.20440000      -1.42690000       1.69900000
H       -0.70100000       0.11690000       2.09930000
H       -2.23690000      -0.27340000       0.13710000
H       -1.33270000      -1.81750000      -0.26480000
