18
Properties=species:S:1:pos:R:3 gdb_78714=T pbc="F F F"
C       -0.13170000       1.45970000       0.02740000
C        0.04840000      -0.05340000       0.02460000
C        0.87320000      -0.56660000      -1.15800000
C        2.15060000      -0.50850000      -0.37380000
C        1.22810000      -0.55950000       0.91270000
C        1.17020000      -2.10210000       0.77730000
C        1.55710000      -1.87810000      -0.68870000
C        2.03450000      -2.84100000      -1.62210000
N        2.42120000      -3.63500000      -2.37130000
H        0.82290000       1.97250000      -0.13280000
H       -0.81920000       1.77760000      -0.76350000
H       -0.54340000       1.79930000       0.98360000
H       -0.91200000      -0.55210000       0.20460000
H        0.73140000      -0.38720000      -2.21630000
H        3.13370000      -0.11980000      -0.59350000
H        1.44040000      -0.08980000       1.87040000
H        1.98010000      -2.59790000       1.31720000
H        0.21730000      -2.59530000       0.99500000
