19
Properties=species:S:1:pos:R:3 gdb_64221=T pbc="F F F"
C       -0.07840000       1.58640000       0.02030000
C        0.01910000       0.06920000       0.01440000
O       -1.18530000      -0.52930000      -0.42670000
C        1.30960000      -0.53290000      -0.60360000
O        1.68750000      -1.13040000       0.65380000
C        0.49690000      -0.65470000       1.30830000
C        0.79200000       0.13790000       2.55370000
C        2.08280000       0.00670000       3.24220000
O        1.78060000       1.16420000       2.45840000
H        0.82670000       2.04220000       0.42460000
H       -0.22030000       1.95460000      -1.00420000
H       -0.93390000       1.91380000       0.61950000
H       -1.49950000      -0.04230000      -1.19600000
H        1.11460000      -1.28570000      -1.37610000
H        2.06240000       0.18300000      -0.95380000
H       -0.18470000      -1.47870000       1.56170000
H       -0.08780000       0.40950000       3.13980000
H        2.13800000       0.17190000       4.31690000
H        2.83430000      -0.65100000       2.81380000
