21
Properties=species:S:1:pos:R:3 gdb_68305=T pbc="F F F"
C       -0.04820000       1.52720000      -0.02600000
C        0.02350000       0.02160000       0.02190000
C        0.51660000      -0.97340000      -1.05780000
N        0.10990000      -1.92700000       0.07820000
C        0.80890000      -0.89600000       0.99010000
C       -1.12920000      -1.01000000       0.20180000
C       -1.92410000      -1.13320000       1.48560000
C       -2.91540000      -2.22960000       1.62430000
N       -1.67210000      -2.25650000       2.40950000
H        0.94580000       1.96270000      -0.17520000
H       -0.68980000       1.86490000      -0.84710000
H       -0.45380000       1.93350000       0.90700000
H       -0.08210000      -1.09260000      -1.96590000
H        1.58710000      -1.00100000      -1.27890000
H        1.89890000      -0.91660000       0.89930000
H        0.50020000      -0.94380000       2.03510000
H       -1.78420000      -1.11390000      -0.67170000
H       -2.13130000      -0.19330000       1.99500000
H       -3.82390000      -2.07850000       2.20090000
H       -3.01510000      -2.92180000       0.79100000
H       -1.01340000      -2.88880000       1.95600000
