19
Properties=species:S:1:pos:R:3 gdb_102828=T pbc="F F F"
O        0.45090000       1.39070000       0.02660000
C        0.26970000       0.04400000      -0.33060000
C       -1.16000000      -0.49000000      -0.07050000
C       -2.15670000      -0.26640000      -1.22230000
C       -2.48910000       1.14710000      -1.61840000
O       -1.91930000       2.15170000      -1.25860000
C       -1.11050000      -1.97600000       0.22880000
C       -1.17770000      -2.50570000       1.59500000
O       -2.31240000      -2.57050000       0.72450000
H       -0.26870000       1.89390000      -0.38470000
H        0.54140000      -0.14680000      -1.38500000
H        0.97450000      -0.53080000       0.28210000
H       -1.53490000       0.02460000       0.82190000
H       -1.80680000      -0.76120000      -2.14380000
H       -3.10790000      -0.76440000      -0.98780000
H       -3.34720000       1.22620000      -2.32070000
H       -0.60100000      -2.58320000      -0.52390000
H       -0.71750000      -3.46370000       1.83200000
H       -1.27020000      -1.81430000       2.43120000
