23
Properties=species:S:1:pos:R:3 gdb_83985=T pbc="F F F"
C       -0.55110000       1.08740000      -0.24760000
C       -0.05710000      -0.31240000       0.05020000
C        0.68180000      -1.19650000      -0.92980000
C        0.94160000      -0.91080000      -2.40210000
C        1.62500000       0.39630000      -2.81860000
C        3.04650000       0.57940000      -2.26390000
C        3.14490000       0.93870000      -0.80140000
C        2.46850000       0.42320000       0.22810000
C        1.42990000      -0.63270000       0.25990000
H        0.24020000       1.73320000      -0.63360000
H       -1.37040000       1.07870000      -0.97580000
H       -0.93260000       1.55490000       0.66680000
H       -0.72430000      -0.85800000       0.71370000
H        0.43320000      -2.24830000      -0.79760000
H        1.55900000      -1.73630000      -2.78450000
H       -0.01560000      -0.99040000      -2.93580000
H        1.68260000       0.39530000      -3.91450000
H        1.01380000       1.26320000      -2.55020000
H        3.62360000      -0.33760000      -2.46020000
H        3.54670000       1.36490000      -2.84170000
H        3.88070000       1.70560000      -0.56550000
H        2.70970000       0.81530000       1.21650000
H        1.60930000      -1.34550000       1.06330000
