23
Properties=species:S:1:pos:R:3 gdb_96591=T pbc="F F F"
C        0.09130000       1.62090000       0.03510000
C        0.00730000       0.09600000       0.00950000
C        0.66690000      -0.45450000      -1.27130000
O        0.99060000      -1.82350000      -1.23970000
C       -0.07680000      -2.74390000      -1.33460000
C       -0.88010000      -2.95130000      -0.03450000
C       -0.03290000      -2.82220000       1.24730000
C       -0.00500000      -1.42300000       1.87940000
O        0.66920000      -0.40930000       1.15950000
H        1.13700000       1.93620000       0.10630000
H       -0.34150000       2.05620000      -0.87200000
H       -0.44490000       2.01990000       0.89990000
H       -1.05150000      -0.19700000       0.03580000
H        0.02340000      -0.22080000      -2.13720000
H        1.62390000       0.05950000      -1.41550000
H       -0.75210000      -2.46980000      -2.16190000
H        0.40480000      -3.68970000      -1.60630000
H       -1.73090000      -2.26160000       0.01560000
H       -1.32000000      -3.95420000      -0.08960000
H       -0.44210000      -3.49020000       2.01590000
H        0.99450000      -3.14820000       1.05500000
H       -1.04130000      -1.10560000       2.09070000
H        0.51740000      -1.48180000       2.84060000
