16
Properties=species:S:1:pos:R:3 gdb_8869=T pbc="F F F"
C        0.14570000       1.34280000      -0.36900000
C       -0.10590000      -0.10260000       0.11510000
C        0.66670000      -0.41040000       1.40740000
O        2.06560000      -0.24450000       1.24960000
C       -1.58890000      -0.32090000       0.30690000
O       -2.16000000      -0.30480000       1.37450000
C       -2.44130000      -0.57960000      -0.94690000
O       -1.98530000      -0.70790000      -2.05240000
H        1.22340000       1.50650000      -0.43330000
H       -0.30030000       1.51890000      -1.35040000
H       -0.26760000       2.06630000       0.34140000
H        0.22040000      -0.78130000      -0.68470000
H        0.36280000       0.28810000       2.19180000
H        0.41680000      -1.42050000       1.76270000
H        2.38630000      -0.94230000       0.66910000
H       -3.52520000      -0.65570000      -0.71650000
