23
Properties=species:S:1:pos:R:3 gdb_67032=T pbc="F F F"
C        0.00260000       1.54040000      -0.07670000
C       -0.00220000       0.04330000       0.00120000
C        0.48110000      -1.02310000      -0.96960000
C        1.22670000      -1.76330000       0.13740000
C        0.49190000      -0.86010000       1.18920000
C        1.35520000      -0.23950000       2.27010000
C       -0.77710000      -1.57250000       1.69010000
C       -1.59710000      -1.85550000       0.40360000
C       -0.99750000      -0.89440000      -0.62250000
H        0.99620000       1.95820000       0.12390000
H       -0.29990000       1.87800000      -1.07390000
H       -0.69380000       1.98630000       0.64440000
H        0.82080000      -0.90040000      -1.99280000
H        1.08400000      -2.84760000       0.22440000
H        2.30010000      -1.55360000       0.11140000
H        2.21670000       0.28650000       1.84480000
H        0.78720000       0.48000000       2.87140000
H        1.74110000      -1.00720000       2.95100000
H       -0.54450000      -2.48140000       2.25620000
H       -1.33360000      -0.90430000       2.35930000
H       -1.50850000      -2.90000000       0.08430000
H       -2.66370000      -1.66100000       0.55230000
H       -1.62250000      -0.51530000      -1.42500000
