14
Properties=species:S:1:pos:R:3 gdb_77850=T pbc="F F F"
N       -0.03250000       1.55390000       0.20130000
C       -0.04030000       0.13870000      -0.03750000
C       -1.36090000      -0.64130000      -0.03420000
C       -2.16010000      -0.46650000      -1.26850000
C       -2.15350000       0.75750000      -2.03580000
N       -2.15770000       1.74510000      -2.63790000
N       -0.99990000      -1.41430000      -1.29650000
C        0.19560000      -0.55010000      -1.41930000
O        1.01220000      -0.53000000      -2.27750000
H        0.91270000       1.89520000       0.33110000
H       -0.44540000       2.07070000      -0.56780000
H        0.64410000      -0.34460000       0.66990000
H       -1.78160000      -1.15710000       0.82030000
H       -3.10730000      -0.99570000      -1.31540000
