16
Properties=species:S:1:pos:R:3 gdb_33638=T pbc="F F F"
C       -0.05390000      -1.17800000      -0.15080000
C       -0.03840000       0.01880000      -0.02590000
C        0.02390000       1.42940000       0.12500000
C       -0.89230000       2.32310000       0.88570000
C       -0.07500000       3.21860000       1.74250000
C        1.19740000       3.19500000       1.32450000
C        1.28220000       2.36610000       0.07050000
C        0.44540000       3.13630000      -1.01000000
N       -0.81400000       2.43220000      -0.64010000
H       -0.07910000      -2.23370000      -0.26250000
H       -1.87080000       1.96980000       1.18560000
H       -0.49000000       3.81840000       2.54180000
H        2.01100000       3.80830000       1.69170000
H        2.24970000       1.96060000      -0.21580000
H        0.41710000       4.22800000      -0.94060000
H        0.70040000       2.82480000      -2.02510000
