20
Properties=species:S:1:pos:R:3 gdb_89284=T pbc="F F F"
C       -0.32270000       1.49440000       0.01510000
C        0.05070000       0.02510000       0.00150000
C        1.20180000      -0.46790000      -0.92830000
C        1.80900000      -1.20970000       0.30150000
C        1.78490000      -2.72140000       0.27740000
C        2.96070000      -0.50570000       1.06260000
C        1.83340000       0.28710000       1.76090000
O        1.77900000       1.26130000       2.45630000
N        0.80370000      -0.51220000       1.19850000
H        0.55490000       2.13710000       0.12310000
H       -0.82650000       1.75160000      -0.92280000
H       -1.00320000       1.71670000       0.84200000
H       -0.85090000      -0.58310000      -0.12400000
H        0.90970000      -1.10000000      -1.77000000
H        1.82770000       0.34870000      -1.30060000
H        2.55440000      -3.10620000      -0.40140000
H        1.97250000      -3.13040000       1.27500000
H        0.81530000      -3.09660000      -0.06610000
H        3.54780000      -1.15620000       1.71690000
H        3.64020000       0.11980000       0.47920000
