22
Properties=species:S:1:pos:R:3 gdb_36935=T pbc="F F F"
C       -0.05000000       1.43770000       0.12190000
C        0.16450000      -0.07970000       0.18390000
C       -1.19070000      -0.83340000       0.30310000
C       -1.35130000      -1.53590000      -1.06780000
O       -0.39680000      -0.93740000      -1.93330000
C        0.73550000      -0.66510000      -1.12230000
N        1.21220000       2.17180000       0.12720000
C        1.70210000       2.67040000      -1.15680000
C        1.12270000       3.60060000      -0.15170000
H       -0.67380000       1.68440000      -0.75720000
H       -0.61170000       1.74790000       1.01160000
H        0.82570000      -0.29340000       1.02780000
H       -1.18690000      -1.55490000       1.12360000
H       -2.01050000      -0.13330000       0.49040000
H       -1.15480000      -2.61600000      -0.97400000
H       -2.33930000      -1.40740000      -1.51760000
H        1.39020000       0.01400000      -1.67110000
H        1.29590000      -1.59230000      -0.91410000
H        2.77660000       2.61770000      -1.30870000
H        1.10430000       2.46850000      -2.04430000
H        0.14080000       4.01770000      -0.37190000
H        1.76440000       4.24090000       0.44710000
