14
Properties=species:S:1:pos:R:3 gdb_10290=T pbc="F F F"
C        0.68390000       0.54990000      -0.06490000
O       -0.28460000      -0.15990000      -0.82760000
C       -1.48850000      -0.38160000      -0.12420000
C       -2.55810000      -0.58830000      -1.10990000
N       -3.39970000      -0.76490000      -1.88040000
C       -1.43950000      -1.61390000       0.83300000
N       -0.49690000      -2.51870000       0.48020000
O       -2.19290000      -1.70010000       1.77550000
H        1.55490000       0.67540000      -0.71010000
H        0.30680000       1.53850000       0.22840000
H        0.97780000      -0.00380000       0.83670000
H       -1.75980000       0.47770000       0.50420000
H        0.04790000      -2.38110000      -0.35480000
H       -0.43450000      -3.38410000       0.99050000
