18
Properties=species:S:1:pos:R:3 gdb_96912=T pbc="F F F"
C       -0.05440000       1.36030000      -0.12590000
N        0.09410000      -0.07150000      -0.00520000
C        0.64140000      -0.57040000       1.01790000
O        0.76510000      -1.94220000       1.09680000
C        1.39850000      -2.28390000       2.30920000
C        0.96840000      -3.56640000       2.97930000
C        2.31410000      -3.48410000       2.29950000
C        1.67300000      -1.01870000       3.00570000
C        1.22950000      -0.00910000       2.24990000
H        0.44980000       1.70340000      -1.03770000
H       -1.11630000       1.60780000      -0.24580000
H        0.33500000       1.95230000       0.71560000
H        0.92610000      -3.58890000       4.06270000
H        0.18370000      -4.11830000       2.47520000
H        2.42500000      -3.98130000       1.34290000
H        3.21060000      -3.44920000       2.90860000
H        2.15760000      -0.96380000       3.97160000
H        1.27800000       1.04520000       2.47340000
