14
Properties=species:S:1:pos:R:3 gdb_130921=T pbc="F F F"
O       -0.57020000       0.25850000       0.18410000
C       -0.20160000       1.34100000      -0.17740000
C        1.20370000       1.87350000      -0.00150000
C        1.41600000       2.79920000       1.28120000
C        2.39030000       1.71700000       1.73400000
C        3.33720000       1.01470000       2.44190000
N        3.61540000      -0.11070000       1.70600000
N        2.91460000      -0.15090000       0.59790000
N        2.17230000       0.96900000       0.64270000
H       -0.88740000       2.07210000      -0.66200000
H        1.56760000       2.31730000      -0.93330000
H        1.85270000       3.77410000       1.05990000
H        0.52500000       2.92460000       1.89980000
H        3.82960000       1.20400000       3.38010000
