20
Properties=species:S:1:pos:R:3 gdb_37393=T pbc="F F F"
C       -0.00770000       1.42710000      -0.18500000
C        1.29190000       0.71440000       0.03070000
C        1.99980000       0.73980000       1.38600000
C        1.13410000       1.45110000       2.46200000
C        0.42450000       0.10020000       2.63680000
C        1.72730000      -0.62140000       2.18060000
C        0.89130000      -1.69120000       1.46270000
C       -0.22230000      -0.60860000       1.35090000
N        0.01500000      -0.01470000       0.03350000
H       -0.39600000       2.08540000       0.58220000
H       -0.29250000       1.70970000      -1.19570000
H        1.92780000       0.52730000      -0.83250000
H        3.04020000       1.05340000       1.28260000
H        1.72970000       1.64830000       3.36050000
H        0.59820000       2.36660000       2.20690000
H       -0.09410000      -0.14930000       3.56500000
H        2.52310000      -0.89350000       2.87570000
H        1.23100000      -2.12430000       0.51860000
H        0.62960000      -2.49000000       2.16310000
H       -1.26830000      -0.90850000       1.43910000
