20
Properties=species:S:1:pos:R:3 gdb_92813=T pbc="F F F"
C       -0.18610000       1.59720000      -0.04200000
C        0.01640000       0.07650000      -0.04870000
C        0.66210000      -0.44920000      -1.38150000
C        2.10110000      -0.01280000      -1.27950000
C        2.73820000      -0.38720000      -0.16720000
C        3.21280000       0.55730000       0.91410000
N        2.15390000      -0.05310000       1.83150000
C        0.82280000      -0.45870000       1.15440000
C        2.04840000      -1.22650000       0.89720000
H        0.76080000       2.12940000      -0.17070000
H       -0.85920000       1.90580000      -0.84900000
H       -0.62310000       1.92670000       0.90580000
H       -0.97450000      -0.38720000       0.05220000
H        0.54930000      -1.53770000      -1.41920000
H        0.15510000      -0.03240000      -2.25590000
H        2.42210000       0.87520000      -1.81880000
H        4.17270000       0.32840000       1.38750000
H        3.13520000       1.63280000       0.72570000
H        0.19560000      -0.79310000       1.97710000
H        2.27560000      -2.24320000       1.20180000
