20
Properties=species:S:1:pos:R:3 gdb_113010=T pbc="F F F"
C        0.22110000       1.53880000      -0.14920000
O       -0.32270000       0.25770000      -0.38980000
C        0.54220000      -0.59050000      -1.08540000
C        1.67730000      -1.27280000      -0.25710000
N        1.05530000      -2.56090000      -0.55880000
C        1.59550000      -3.79720000      -0.48740000
O        2.66380000      -4.05350000       0.03130000
C       -0.07220000      -2.00660000      -1.33040000
C       -1.45690000      -2.27000000      -0.75570000
H        1.12240000       1.49220000       0.47950000
H        0.48070000       2.04880000      -1.08960000
H       -0.54220000       2.12000000       0.37240000
H        0.90660000      -0.10610000      -2.00170000
H        2.69600000      -1.17750000      -0.64510000
H        1.66920000      -1.01720000       0.80790000
H        0.94340000      -4.56400000      -0.95510000
H       -0.03920000      -2.30100000      -2.38660000
H       -1.51340000      -1.95860000       0.28890000
H       -2.21150000      -1.71500000      -1.32060000
H       -1.69650000      -3.33580000      -0.82050000
