19
Properties=species:S:1:pos:R:3 gdb_90206=T pbc="F F F"
C       -0.47440000       1.39910000      -0.05400000
C        0.06260000      -0.01450000       0.03540000
O        1.21720000      -0.25530000      -0.88130000
C        2.07050000      -0.34580000       0.26350000
C        2.74740000       0.81840000       0.99970000
C        2.18620000      -0.11670000       2.09100000
C        2.57450000      -1.43900000       1.27610000
C        1.16880000      -2.03560000       1.40780000
C        0.90560000      -0.52020000       1.24680000
H        0.27790000       2.14870000       0.19610000
H       -0.82950000       1.59810000      -1.07000000
H       -1.31920000       1.51340000       0.63380000
H       -0.72840000      -0.73340000      -0.20390000
H        3.83700000       0.88870000       0.93000000
H        2.28930000       1.80570000       0.91700000
H        2.27060000      -0.01450000       3.17560000
H        3.55070000      -1.93330000       1.33000000
H        0.84390000      -2.67020000       0.57800000
H        0.90310000      -2.48850000       2.36760000
