21
Properties=species:S:1:pos:R:3 gdb_103497=T pbc="F F F"
C       -0.59440000       1.01320000      -0.13450000
O        0.19590000      -0.15620000       0.02830000
C        0.78790000      -0.61580000      -1.15320000
C        1.99820000       0.16730000      -1.61560000
C        0.81150000      -2.12100000      -1.33220000
C       -0.11560000      -2.96140000      -0.46700000
C       -1.52140000      -2.36890000      -0.72130000
O       -1.43690000      -1.52520000      -1.87950000
C       -0.09610000      -1.27690000      -2.19470000
H        0.00970000       1.88010000      -0.43530000
H       -1.38820000       0.85300000      -0.87310000
H       -1.04100000       1.22620000       0.83980000
H        2.77970000       0.15200000      -0.84860000
H        2.41170000      -0.26230000      -2.53290000
H        1.74660000       1.21200000      -1.82650000
H        1.71460000      -2.57940000      -1.71950000
H       -0.05650000      -4.00520000      -0.79020000
H        0.14020000      -2.92120000       0.59490000
H       -2.27720000      -3.13580000      -0.92330000
H       -1.84880000      -1.77310000       0.13550000
H        0.05430000      -1.09760000      -3.25470000
