15
Properties=species:S:1:pos:R:3 gdb_130157=T pbc="F F F"
N        0.04330000       1.37050000       0.14840000
C        0.02160000      -0.00890000       0.05600000
N       -1.10300000      -0.70930000       0.03350000
N       -0.62580000      -1.99680000       0.01360000
C        0.71220000      -1.97710000       0.01510000
N        1.51720000      -3.10020000      -0.00640000
C        1.08440000      -4.39960000      -0.03370000
N       -0.15460000      -4.70950000      -0.04910000
N        1.17800000      -0.73900000       0.04100000
H        0.86680000       1.77820000      -0.26990000
H       -0.81040000       1.80220000      -0.17550000
H       -1.20750000      -2.82170000      -0.00640000
H        2.50540000      -2.90800000       0.01110000
H        1.91780000      -5.10860000      -0.04090000
H       -0.27440000      -5.71790000      -0.06910000
