13
Properties=species:S:1:pos:R:3 gdb_3728=T pbc="F F F"
C        0.07560000       1.44980000      -0.36520000
C       -0.06160000       0.07580000       0.31190000
C       -1.42190000      -0.52350000       0.13830000
N       -2.26000000      -0.67030000       1.13140000
O       -3.38970000      -1.22860000       0.59940000
N       -3.25640000      -1.43490000      -0.74320000
C       -2.06180000      -1.00910000      -1.04180000
H        1.08450000       1.84590000      -0.22080000
H       -0.10930000       1.38600000      -1.44220000
H       -0.63680000       2.16470000       0.05620000
H        0.68580000      -0.61300000      -0.09890000
H        0.13710000       0.16160000       1.38360000
H       -1.69350000      -1.05870000      -2.05500000
