17
Properties=species:S:1:pos:R:3 gdb_45810=T pbc="F F F"
O        0.00770000      -0.10520000      -0.26440000
C       -0.04960000       1.10540000      -0.13430000
N       -1.20930000       1.78960000      -0.48610000
C       -1.70450000       3.01730000      -0.04570000
C       -1.01810000       4.11600000       0.27770000
C        0.43730000       4.30730000       0.12170000
C        1.42880000       4.17020000       1.26210000
C        1.40970000       3.16410000       0.13340000
N        0.97860000       1.83030000       0.42650000
H       -1.89780000       1.12630000      -0.80740000
H       -2.78840000       3.02750000       0.02010000
H       -1.59200000       4.97430000       0.61360000
H        0.69610000       5.09300000      -0.58680000
H        2.24970000       4.87610000       1.32150000
H        1.04080000       3.81950000       2.21120000
H        2.22010000       3.22190000      -0.59150000
H        1.71740000       1.20100000       0.70860000
