18
Properties=species:S:1:pos:R:3 gdb_45587=T pbc="F F F"
O        0.07200000       0.09970000       0.51930000
C       -0.01710000       1.22920000       0.11930000
C       -1.15770000       2.24250000      -0.16180000
C       -0.01740000       3.27330000      -0.39360000
C        0.24920000       4.31370000       0.69310000
O        1.64040000       4.60500000       0.74980000
C        2.40880000       3.47960000       1.15290000
C        2.32470000       2.34300000       0.12050000
N        0.93630000       2.16220000      -0.24160000
H       -1.76780000       2.01440000      -1.03700000
H       -1.80500000       2.43150000       0.69710000
H        0.01710000       3.73080000      -1.38820000
H       -0.26080000       5.25940000       0.49010000
H       -0.09410000       3.93070000       1.66920000
H        3.43830000       3.83060000       1.26250000
H        2.05420000       3.11540000       2.13070000
H        2.91260000       2.60020000      -0.76930000
H        2.70640000       1.40350000       0.52970000
