15
Properties=species:S:1:pos:R:3 gdb_85088=T pbc="F F F"
O       -0.13450000       1.50640000      -0.08120000
C        0.01870000       0.09540000      -0.14300000
C       -1.33860000      -0.58330000       0.10260000
C       -1.51160000      -1.57990000      -1.04990000
O       -2.37920000      -2.41180000      -1.16270000
C       -0.40150000      -1.32480000      -2.01390000
C       -0.27260000      -2.01890000      -3.31580000
O        0.62830000      -1.81450000      -4.09670000
C        0.42530000      -0.39100000      -1.51930000
H        0.73490000       1.91400000      -0.15680000
H        0.76420000      -0.24190000       0.59480000
H       -1.42620000      -1.08290000       1.06930000
H       -2.12920000       0.17150000       0.04420000
H       -1.07440000      -2.75330000      -3.52520000
H        1.30320000      -0.01530000      -2.03600000
