21
Properties=species:S:1:pos:R:3 gdb_65510=T pbc="F F F"
C        0.08990000       1.59210000      -0.08320000
C        0.02340000       0.06910000      -0.06630000
C        0.99150000      -0.66170000      -1.09050000
C        1.71560000      -1.29120000       0.10340000
O        2.21470000      -0.21750000       0.91390000
C        0.84630000      -0.60240000       1.06760000
C       -1.36930000      -0.53230000      -0.12340000
C       -2.57110000       0.07500000       0.55900000
C       -2.49190000       0.04600000      -0.94840000
H        1.12860000       1.90740000       0.03920000
H       -0.27750000       2.00080000      -1.03010000
H       -0.49390000       2.03760000       0.72890000
H        0.46110000      -1.38320000      -1.71640000
H        1.61390000      -0.01900000      -1.71830000
H        2.23630000      -2.23950000       0.17100000
H        0.51430000      -0.88220000       2.06210000
H       -1.34590000      -1.62030000      -0.09670000
H       -3.26710000      -0.59350000       1.05400000
H       -2.46340000       1.03680000       1.04720000
H       -2.32510000       0.98800000      -1.45840000
H       -3.13520000      -0.63960000      -1.48890000
