18
Properties=species:S:1:pos:R:3 gdb_53274=T pbc="F F F"
C       -0.41040000       1.22290000      -0.16930000
C       -0.21000000      -0.21220000      -0.04440000
C       -0.05640000      -1.40300000       0.04460000
C        0.15810000      -2.82080000       0.13830000
C       -0.51500000      -3.61570000       1.24100000
N       -0.91360000      -3.76430000      -0.13630000
C       -2.15550000      -3.46340000      -0.70190000
C       -3.32620000      -4.14060000      -0.01200000
O       -2.26260000      -2.78260000      -1.69400000
H        0.48860000       1.71350000      -0.55790000
H       -1.23350000       1.44350000      -0.85760000
H       -0.64860000       1.68120000       0.79690000
H        1.13600000      -3.16480000      -0.19290000
H        0.00460000      -4.45900000       1.68960000
H       -1.16430000      -3.05690000       1.91060000
H       -3.60090000      -3.58120000       0.88960000
H       -4.18050000      -4.14860000      -0.68900000
H       -3.07460000      -5.15930000       0.29420000
