18
Properties=species:S:1:pos:R:3 gdb_14646=T pbc="F F F"
C        0.04540000       1.52030000       0.10240000
C        0.03700000       0.06780000       0.00010000
C        0.04130000      -1.13320000      -0.08700000
C        0.00860000      -2.58770000      -0.18870000
C       -1.41890000      -3.16310000      -0.09200000
C       -1.43790000      -4.69640000      -0.20720000
C       -2.82640000      -5.25610000       0.00110000
O       -3.41640000      -5.95520000      -0.78110000
H        0.27660000       1.84810000       1.12200000
H        0.79400000       1.96210000      -0.56460000
H       -0.92820000       1.94410000      -0.16800000
H        0.46140000      -2.90440000      -1.13780000
H        0.62920000      -3.03050000       0.60240000
H       -1.86400000      -2.85360000       0.86080000
H       -2.03710000      -2.72380000      -0.88230000
H       -1.06650000      -5.03480000      -1.17920000
H       -0.79000000      -5.12340000       0.57310000
H       -3.29500000      -4.96020000       0.97000000
