15
Properties=species:S:1:pos:R:3 gdb_45460=T pbc="F F F"
O        0.01780000      -0.04760000      -0.25730000
C       -0.00850000       1.14660000      -0.08800000
N       -1.11640000       1.94680000       0.02380000
C       -0.89180000       3.35650000       0.26430000
C       -0.97210000       3.82470000       1.74330000
N        0.47130000       3.53730000       1.88370000
C        0.65110000       3.46390000       0.40930000
C        1.20810000       2.10320000       0.01710000
O        2.34990000       1.78880000      -0.16590000
H       -2.03830000       1.53710000       0.00960000
H       -1.39570000       3.98280000      -0.47400000
H       -1.23760000       4.88820000       1.81060000
H       -1.61820000       3.24740000       2.41290000
H        1.03690000       4.22610000       2.36290000
H        1.14660000       4.30820000      -0.07680000
