15
Properties=species:S:1:pos:R:3 gdb_54435=T pbc="F F F"
C        1.03390000       0.49440000       0.50850000
C       -0.34190000       0.30120000      -0.08770000
O       -1.36710000       0.62950000       0.46620000
C       -0.41220000      -0.32300000      -1.44160000
C       -1.62440000      -0.42830000      -2.37650000
C       -1.08880000      -1.83570000      -2.76690000
O       -1.52890000      -2.75280000      -3.38810000
C        0.13410000      -1.66290000      -1.85850000
O        0.75150000      -0.43470000      -2.25860000
H        1.62210000      -0.42720000       0.46140000
H        1.58300000       1.24380000      -0.07170000
H        0.93440000       0.82770000       1.54180000
H       -2.58120000      -0.50640000      -1.85500000
H       -1.67790000       0.32890000      -3.16010000
H        0.74090000      -2.38660000      -1.32560000
