18
Properties=species:S:1:pos:R:3 gdb_40483=T pbc="F F F"
C        0.41830000       1.42550000       0.25800000
O        1.12320000       0.28280000      -0.23820000
C       -0.25390000       0.12620000       0.11630000
C       -0.56280000      -0.71400000       1.30470000
C       -1.89250000      -0.80290000       2.06930000
C       -0.88770000      -1.63100000       2.86970000
C       -0.16970000      -2.20220000       1.61240000
C        1.16240000      -1.72400000       2.17970000
N        0.24280000      -0.58910000       2.63370000
H        0.71060000       1.75200000       1.25310000
H        0.23210000       2.20980000      -0.47380000
H       -0.92130000      -0.02280000      -0.73480000
H       -2.23980000       0.12250000       2.53690000
H       -2.70710000      -1.34560000       1.58300000
H       -0.99030000      -2.10600000       3.84640000
H       -0.42960000      -3.09630000       1.03570000
H        1.58460000      -2.28770000       3.01850000
H        1.93920000      -1.40230000       1.48510000
