21
Properties=species:S:1:pos:R:3 gdb_53492=T pbc="F F F"
C        0.06660000       1.49500000       0.02230000
C        0.04210000       0.03910000      -0.00450000
C        0.03610000      -1.16530000      -0.02700000
C        0.00210000      -2.62320000      -0.04250000
C       -1.44300000      -3.20680000      -0.03290000
C       -2.23530000      -2.78590000      -1.28410000
C       -1.39370000      -4.66180000       0.10610000
C       -1.33250000      -5.86090000       0.20360000
C       -1.27100000      -7.31050000       0.33010000
H        0.86750000       1.86800000       0.67050000
H        0.23030000       1.91130000      -0.97800000
H       -0.87820000       1.90270000       0.39880000
H        0.52510000      -3.00590000      -0.92830000
H        0.54260000      -3.01830000       0.82540000
H       -1.94970000      -2.78880000       0.84710000
H       -1.76730000      -3.18800000      -2.18830000
H       -3.25990000      -3.16350000      -1.23750000
H       -2.26330000      -1.69590000      -1.36250000
H       -2.24630000      -7.72790000       0.60480000
H       -0.96400000      -7.78120000      -0.61050000
H       -0.55370000      -7.61410000       1.10070000
