19
Properties=species:S:1:pos:R:3 gdb_64002=T pbc="F F F"
C       -0.12730000       1.54340000      -0.05120000
C       -0.00490000       0.01780000      -0.00960000
O       -1.29470000      -0.58400000      -0.00720000
C        0.89370000      -0.49690000      -1.18340000
C        2.22400000      -0.74820000      -0.53620000
C        2.14230000      -0.72170000       0.80320000
C        0.73540000      -0.44980000       1.27250000
C        3.27560000      -0.95520000       1.69990000
O        3.20410000      -0.94510000       2.90930000
H        0.85810000       2.01800000       0.00040000
H       -0.60470000       1.87220000      -0.98300000
H       -0.72880000       1.89850000       0.79030000
H       -1.81220000      -0.18760000      -0.71620000
H        0.47410000      -1.43100000      -1.58110000
H        0.95040000       0.20870000      -2.02140000
H        3.13350000      -0.95190000      -1.09340000
H        0.69360000       0.28670000       2.08000000
H        0.26430000      -1.36330000       1.65250000
H        4.24240000      -1.14580000       1.18100000
