19
Properties=species:S:1:pos:R:3 gdb_117826=T pbc="F F F"
O       -2.47530000       1.52280000       1.35100000
C       -2.46610000       0.10650000       1.27780000
C       -1.53450000      -0.39760000       0.16610000
C       -1.39520000      -1.91930000       0.09370000
O       -0.90140000      -2.39050000       1.35000000
C       -2.69270000      -2.66120000      -0.25930000
O       -2.49910000      -4.06180000      -0.11780000
C       -0.28810000      -2.29120000      -0.90200000
O       -0.39630000      -3.10850000      -1.78510000
H       -1.61580000       1.80730000       1.67780000
H       -2.18040000      -0.35320000       2.23200000
H       -3.50200000      -0.17910000       1.07100000
H       -1.87860000      -0.01210000      -0.80090000
H       -0.53460000       0.02440000       0.33800000
H       -1.14530000      -3.32930000       1.37140000
H       -3.48390000      -2.38670000       0.44280000
H       -3.01860000      -2.39390000      -1.27260000
H       -1.93310000      -4.32210000      -0.85710000
H        0.68120000      -1.78570000      -0.69960000
