16
Properties=species:S:1:pos:R:3 gdb_97537=T pbc="F F F"
C        0.03330000       1.52900000       0.07690000
C        0.00820000      -0.00690000      -0.00820000
O        0.67540000      -0.47840000       1.15510000
C       -1.40580000      -0.47830000       0.00480000
N       -2.50040000      -0.84630000       0.03730000
C        0.65700000      -0.48590000      -1.23620000
C        1.21520000      -0.90130000      -2.21740000
C        1.88810000      -1.38620000      -3.41740000
O        2.08860000      -2.78730000      -3.30910000
H        1.07350000       1.85930000       0.06510000
H       -0.50070000       1.96910000      -0.76680000
H       -0.43710000       1.84250000       1.01110000
H        0.78970000      -1.43250000       1.06960000
H        1.26960000      -1.13070000      -4.29300000
H        2.84320000      -0.84850000      -3.53230000
H        2.50920000      -3.08280000      -4.12300000
