19
Properties=species:S:1:pos:R:3 gdb_80382=T pbc="F F F"
C       -0.21370000       1.58000000      -0.04890000
C        0.04290000       0.08280000      -0.00110000
O       -1.17860000      -0.65150000      -0.14250000
C        1.17090000      -0.54060000      -0.89090000
C        1.75570000      -1.25360000       0.33500000
C        2.13440000      -0.23760000       1.38470000
O        2.65870000       1.03240000       1.09040000
C        0.69700000      -0.53550000       1.24170000
O       -0.05650000      -0.95060000       2.31110000
H        0.71760000       2.12990000       0.09320000
H       -0.64210000       1.86740000      -1.01860000
H       -0.91880000       1.86980000       0.73660000
H       -1.71120000      -0.22320000      -0.81960000
H        0.74530000      -1.22410000      -1.62730000
H        1.83670000       0.17250000      -1.38670000
H        2.14750000      -2.26370000       0.35370000
H        2.54770000      -0.69160000       2.28700000
H        3.56340000       0.91180000       0.78240000
H       -0.88840000      -1.26670000       1.93150000
