15
Properties=species:S:1:pos:R:3 gdb_23103=T pbc="F F F"
O       -0.14770000       1.32720000      -0.10410000
N        0.04890000      -0.05540000      -0.01720000
C       -1.05920000      -0.66750000       0.04800000
C       -1.21460000      -2.16600000       0.12860000
C       -2.70990000      -2.29850000       0.46100000
O       -3.32930000      -1.16050000      -0.15290000
C       -2.46190000      -0.05760000       0.02350000
C       -2.75730000       0.66810000       1.27890000
N       -3.01310000       1.20590000       2.26880000
H        0.75200000       1.67190000      -0.11330000
H       -0.99200000      -2.62140000      -0.84230000
H       -0.55670000      -2.61510000       0.87510000
H       -3.18250000      -3.18780000       0.04220000
H       -2.87770000      -2.28230000       1.54670000
H       -2.58750000       0.63360000      -0.81530000
