19
Properties=species:S:1:pos:R:3 gdb_74879=T pbc="F F F"
C       -0.03520000       1.50790000       0.06060000
C        0.00900000       0.00570000      -0.00830000
C       -0.01180000      -0.65480000      -1.17710000
C        0.00140000      -2.12770000      -1.27060000
O        1.19840000      -2.83310000      -0.84530000
C        0.03470000      -2.92790000      -0.02890000
C        0.05740000      -2.23060000       1.29880000
C        1.29070000      -1.48650000       1.72280000
C        0.06060000      -0.70610000       1.29130000
H        0.85540000       1.90480000       0.56350000
H       -0.09630000       1.95640000      -0.93430000
H       -0.90000000       1.84860000       0.64430000
H       -0.05650000      -0.09740000      -2.10880000
H       -0.44280000      -2.56030000      -2.16570000
H       -0.43870000      -3.90920000      -0.03260000
H       -0.53340000      -2.71050000       2.07140000
H        1.54570000      -1.47530000       2.77650000
H        2.12680000      -1.51370000       1.03480000
H       -0.47610000      -0.21320000       2.09780000
