20
Properties=species:S:1:pos:R:3 gdb_68028=T pbc="F F F"
C       -0.04950000       1.51790000       0.04420000
C        0.03400000       0.00900000       0.04730000
C        0.92830000      -0.79480000      -0.96670000
C        0.73530000      -1.92260000       0.11640000
O        1.49980000      -3.08390000       0.18310000
C        0.78560000      -0.77930000       1.16520000
C       -0.77190000      -2.18470000      -0.04730000
N       -1.62230000      -1.67060000       1.05440000
C       -1.27990000      -0.80100000      -0.09910000
H        0.94450000       1.97330000       0.10340000
H       -0.53030000       1.88700000      -0.86960000
H       -0.63510000       1.87970000       0.89660000
H        0.53180000      -0.97510000      -1.97080000
H        1.95560000      -0.41990000      -1.02030000
H        2.42250000      -2.83310000       0.29290000
H        1.80310000      -0.39720000       1.28910000
H        0.29480000      -0.92750000       2.12460000
H       -1.11270000      -2.99570000      -0.68000000
H       -2.56700000      -2.02540000       0.91510000
H       -2.05710000      -0.46560000      -0.77770000
