14
Properties=species:S:1:pos:R:3 gdb_128966=T pbc="F F F"
N        0.00960000       1.32320000       0.00960000
C        1.23900000       1.88740000       0.00070000
C        2.13430000       0.81870000      -0.01410000
C        3.53560000       0.63150000      -0.02890000
C        3.98870000      -0.66270000      -0.04070000
N        3.19190000      -1.77690000      -0.03910000
C        1.89000000      -1.62480000      -0.02550000
C        1.29240000      -0.33990000      -0.01240000
N       -0.01510000      -0.01450000       0.00230000
H       -0.87140000       1.81380000       0.02100000
H        1.37370000       2.95660000       0.00540000
H        4.22870000       1.46540000      -0.03100000
H        5.05540000      -0.86660000      -0.05230000
H        1.27010000      -2.51900000      -0.02440000
