15
Properties=species:S:1:pos:R:3 gdb_49375=T pbc="F F F"
N        0.06120000       1.28300000       0.01370000
C       -0.02930000       0.02110000      -0.06560000
N       -1.24360000      -0.64540000      -0.01480000
C       -1.50960000      -2.10270000      -0.04940000
C       -3.03400000      -1.75700000      -0.00490000
C       -2.60010000      -0.27990000       0.05350000
O       -3.15190000       0.77440000       0.13080000
C       -1.01540000      -2.80090000      -1.22380000
C       -0.59580000      -3.38220000      -2.18820000
H        1.03750000       1.56670000      -0.05200000
H        0.80220000      -0.68470000      -0.18620000
H       -1.16140000      -2.60250000       0.86140000
H       -3.58370000      -2.02300000      -0.90810000
H       -3.56690000      -2.11290000       0.87770000
H       -0.23090000      -3.89420000      -3.04460000
