17
Properties=species:S:1:pos:R:3 gdb_66344=T pbc="F F F"
O        0.00040000       1.45040000      -0.02150000
C        0.01300000       0.04520000      -0.03620000
C       -1.43650000      -0.49390000      -0.04780000
O       -1.45610000      -1.88940000      -0.26920000
C       -0.97870000      -2.25880000      -1.55080000
C        0.26420000      -1.51980000      -1.95730000
C        0.72570000      -0.48020000      -1.26640000
C        0.73280000      -0.46340000       1.20780000
O        1.26210000       0.29480000       1.98510000
H        0.49640000       1.70550000       0.77430000
H       -1.93080000      -0.31750000       0.91150000
H       -1.98420000       0.05700000      -0.82650000
H       -0.79360000      -3.33830000      -1.50770000
H       -1.76310000      -2.10060000      -2.31290000
H        0.75370000      -1.85220000      -2.86900000
H        1.61460000       0.06730000      -1.56440000
H        0.73730000      -1.55960000       1.34850000
