22
Properties=species:S:1:pos:R:3 gdb_60147=T pbc="F F F"
C        0.15890000       1.57720000      -0.19570000
C       -0.06960000       0.06240000      -0.08620000
C        0.32040000      -0.64020000      -1.39410000
C        0.68160000      -0.56980000       1.10120000
C        0.19520000      -0.16620000       2.47990000
C        0.96860000      -0.70680000       3.70380000
C        1.25600000       0.75310000       3.97770000
N        1.87310000       1.38250000       4.86900000
O        0.57390000       1.20670000       2.86790000
H        1.22000000       1.79690000      -0.36390000
H       -0.40250000       1.98930000      -1.04080000
H       -0.14500000       2.10520000       0.71020000
H       -1.14400000      -0.10900000       0.07800000
H        1.39080000      -0.51890000      -1.59900000
H        0.10850000      -1.71410000      -1.35450000
H       -0.22750000      -0.22060000      -2.24380000
H        0.58020000      -1.66270000       1.04350000
H        1.75590000      -0.35270000       1.02630000
H       -0.89260000      -0.26590000       2.56070000
H        0.37810000      -1.21260000       4.46900000
H        1.85160000      -1.30520000       3.46930000
H        1.83680000       2.38970000       4.70200000
