23
Properties=species:S:1:pos:R:3 gdb_110010=T pbc="F F F"
C       -1.62330000      -0.33870000       0.27170000
C       -0.16280000       0.09760000       0.12160000
C        0.73920000      -0.38720000       1.26500000
C        0.85880000      -1.93540000       1.40140000
O        0.80590000      -2.59330000       0.14030000
C        2.23100000      -2.14580000       2.08180000
C        3.00360000      -0.92580000       1.64160000
C        2.20170000       0.04560000       1.19330000
C        2.61880000       1.41140000       0.74340000
H       -2.04150000      -0.00320000       1.22790000
H       -2.24280000       0.08250000      -0.52630000
H       -1.71200000      -1.42740000       0.22410000
H        0.22770000      -0.27080000      -0.83370000
H       -0.11290000       1.19230000       0.07630000
H        0.31620000       0.00240000       2.20670000
H        0.03390000      -2.36460000       1.97480000
H        1.56110000      -2.28330000      -0.37300000
H        2.13430000      -2.17730000       3.17680000
H        2.67150000      -3.10070000       1.77510000
H        4.08180000      -0.84180000       1.73340000
H        3.70300000       1.53850000       0.80890000
H        2.31580000       1.60980000      -0.29160000
H        2.14910000       2.19120000       1.35720000
