18
Properties=species:S:1:pos:R:3 gdb_22424=T pbc="F F F"
C       -0.09070000       1.50570000       0.06600000
C        0.16430000       0.03640000      -0.00480000
C        0.65890000      -0.79180000      -1.21820000
C        1.28770000      -1.73180000      -0.18810000
N        2.09190000      -2.70820000      -0.19520000
O        2.38800000      -3.11450000      -1.50900000
C        0.76860000      -0.92250000       0.96570000
C        1.29370000      -0.80710000       2.35650000
O       -0.66720000      -0.84880000       0.75280000
H        0.75750000       2.06710000      -0.33820000
H       -0.97910000       1.77040000      -0.51850000
H       -0.26170000       1.81790000       1.09960000
H       -0.12640000      -1.20310000      -1.85630000
H        1.41700000      -0.29840000      -1.83430000
H        2.99910000      -3.84460000      -1.36250000
H        2.37550000      -0.64520000       2.34520000
H        0.81180000       0.02250000       2.88030000
H        1.09720000      -1.72630000       2.91770000
