18
Properties=species:S:1:pos:R:3 gdb_133876=T pbc="F F F"
C       -1.39000000       1.46500000       0.48290000
C       -1.01180000       0.21180000       1.35150000
C       -1.03060000      -0.65640000       0.04980000
C        0.16120000      -1.57880000      -0.12320000
C        1.23710000      -0.80090000       0.53070000
C        0.48900000       0.44220000       0.97340000
C       -0.32640000       0.68200000      -0.33560000
C        0.59720000       0.37910000      -1.49490000
N        1.19450000      -0.88970000      -0.96830000
H       -1.09390000       2.44130000       0.87550000
H       -2.40520000       1.49320000       0.07850000
H       -1.42470000      -0.04030000       2.33060000
H       -1.98400000      -0.90370000      -0.41850000
H        0.11440000      -2.65840000      -0.18390000
H        2.10380000      -1.22010000       1.02520000
H        1.03320000       1.27770000       1.41530000
H        1.39270000       1.11230000      -1.65330000
H        0.09330000       0.17280000      -2.44300000
