16
Properties=species:S:1:pos:R:3 gdb_54086=T pbc="F F F"
N       -0.39010000       1.35450000       0.18290000
C       -0.13600000       0.07530000      -0.18090000
O        0.89530000      -0.28840000      -0.71430000
C       -1.30380000      -0.91640000       0.05290000
C       -0.85020000      -2.36350000      -0.13680000
C       -1.93840000      -3.27920000      -0.63810000
O       -3.05640000      -2.92220000      -0.91800000
C       -2.08140000      -0.73040000       1.34780000
O       -2.33960000       0.32880000       1.86720000
H        0.37020000       2.01180000       0.10950000
H       -1.16840000       1.54820000       0.79880000
H       -2.05010000      -0.69850000      -0.72760000
H       -0.01570000      -2.38280000      -0.84890000
H       -0.43770000      -2.79400000       0.78690000
H       -1.63420000      -4.34320000      -0.74720000
H       -2.44060000      -1.67660000       1.80480000
