22
Properties=species:S:1:pos:R:3 gdb_78394=T pbc="F F F"
C       -0.12470000       1.50530000       0.04730000
C        0.10520000       0.01940000      -0.09870000
C        0.79590000      -0.65250000      -1.22820000
C        1.95780000       0.13380000      -1.76530000
C        2.46920000       0.19550000      -0.32290000
N        1.38580000      -0.66230000       0.19790000
C        3.28290000      -0.50940000      -1.37120000
C        3.49170000      -2.01120000      -1.35790000
C        4.49420000       0.27890000      -1.84200000
H        0.65740000       2.09840000      -0.42890000
H       -1.08220000       1.77860000      -0.40870000
H       -0.17090000       1.78260000       1.10630000
H       -0.70930000      -0.57790000       0.31050000
H        0.39960000      -1.56390000      -1.66800000
H        1.90750000       0.89940000      -2.53280000
H        2.84820000       1.02970000       0.25840000
H        2.64120000      -2.53410000      -0.91840000
H        3.65180000      -2.39070000      -2.37390000
H        4.37900000      -2.26610000      -0.76680000
H        5.36420000       0.07450000      -1.20810000
H        4.76110000       0.00750000      -2.86970000
H        4.30910000       1.35810000      -1.82000000
