16
Properties=species:S:1:pos:R:3 gdb_31113=T pbc="F F F"
O        0.78230000      -0.14650000       0.56900000
C       -0.15480000       0.33980000      -0.41600000
C       -1.51670000      -0.23770000      -0.20060000
C       -1.73270000      -1.49370000       0.30560000
O       -0.87630000      -2.44670000       0.74210000
N       -3.08480000      -1.73310000       0.34810000
C       -3.74160000      -0.62260000      -0.13330000
O       -5.10070000      -0.67770000      -0.16150000
C       -2.81970000       0.32480000      -0.48010000
H        0.46760000       0.17000000       1.42420000
H       -0.18430000       1.43860000      -0.41120000
H        0.28890000       0.03760000      -1.37290000
H       -0.00640000      -2.01180000       0.75580000
H       -3.52430000      -2.55960000       0.71460000
H       -5.42440000       0.14410000      -0.54190000
H       -3.02720000       1.29980000      -0.89450000
