24
Properties=species:S:1:pos:R:3 gdb_118487=T pbc="F F F"
C       -0.16720000       1.49850000      -0.06800000
C        0.09450000      -0.00600000       0.03590000
C        0.82050000      -0.63260000      -1.16360000
C        1.12550000      -2.11870000      -0.89490000
O        0.03000000      -2.88530000      -0.44400000
C       -0.81900000      -3.37560000      -1.46440000
N        0.03290000      -0.48520000      -2.39170000
C        0.26190000       0.70300000      -3.20600000
C        0.75320000      -0.62680000      -3.65350000
H        0.76060000       2.06040000      -0.22800000
H       -0.84910000       1.73400000      -0.88930000
H       -0.62200000       1.87200000       0.85500000
H        0.70070000      -0.20730000       0.92820000
H       -0.84750000      -0.54320000       0.17990000
H        1.80690000      -0.13750000      -1.28120000
H        1.57100000      -2.57350000      -1.79450000
H        1.87320000      -2.16700000      -0.09430000
H       -1.54930000      -4.02900000      -0.97940000
H       -1.33870000      -2.56800000      -1.99150000
H       -0.25300000      -3.96800000      -2.20120000
H       -0.62030000       1.15070000      -3.65490000
H        1.01190000       1.41640000      -2.86830000
H        1.82930000      -0.79230000      -3.61410000
H        0.23890000      -1.17590000      -4.43710000
