25
Properties=species:S:1:pos:R:3 gdb_57421=T pbc="F F F"
C        0.61440000       2.22400000      -0.80750000
C       -0.01820000       0.84790000      -0.53390000
C        0.18750000       0.48580000       0.95070000
C       -1.53090000       0.94760000      -0.82700000
C        0.52620000      -0.30180000      -1.39060000
C        0.93690000      -0.21840000      -2.85140000
C        1.93410000      -0.64550000      -1.79420000
C        3.16930000       0.18280000      -1.51730000
O        2.17890000      -2.03140000      -1.68020000
H        1.65350000       2.27620000      -0.47450000
H        0.57710000       2.49010000      -1.86870000
H        0.06220000       2.99580000      -0.26050000
H       -0.24560000       1.25120000       1.60440000
H       -0.28860000      -0.47020000       1.19310000
H        1.25180000       0.39820000       1.19190000
H       -1.71180000       1.20600000      -1.87570000
H       -2.03620000      -0.00300000      -0.62550000
H       -1.99990000       1.71590000      -0.20270000
H       -0.01670000      -1.22090000      -1.17800000
H        0.55530000      -0.97410000      -3.52980000
H        1.07290000       0.76260000      -3.29610000
H        3.00980000       1.24610000      -1.69900000
H        3.51360000       0.04780000      -0.48680000
H        3.98150000      -0.14080000      -2.18150000
H        2.81780000      -2.27070000      -2.36150000
