14
Properties=species:S:1:pos:R:3 gdb_125129=T pbc="F F F"
C        0.02280000       1.49990000      -0.04360000
C       -0.05260000       0.02670000       0.10140000
C       -1.09030000      -0.84810000       0.22900000
O       -2.40530000      -0.54280000       0.29730000
C       -3.31420000      -1.47880000      -0.12450000
N       -4.53560000      -1.21000000      -0.00940000
N       -0.57570000      -2.10930000       0.33650000
N        0.68730000      -2.06460000       0.27620000
O        1.06700000      -0.70670000       0.13470000
H        0.55840000       1.77680000      -0.95700000
H       -0.98720000       1.91170000      -0.08650000
H        0.54980000       1.95190000       0.80290000
H       -2.84620000      -2.38160000      -0.52330000
H       -5.09740000      -1.98050000      -0.36600000
