21
Properties=species:S:1:pos:R:3 gdb_118010=T pbc="F F F"
C        0.00220000       1.51550000       0.12410000
C        0.08560000       0.00470000      -0.00780000
O        0.69790000      -0.50900000       1.16380000
C        0.78480000      -1.92180000       1.24100000
C        1.99070000      -2.47360000       0.47960000
C        0.86140000      -2.24440000       2.75010000
N        2.01410000      -1.57200000       3.34490000
C       -0.42310000      -1.89550000       3.40030000
N       -1.40580000      -1.62310000       3.94520000
H        1.00140000       1.94800000       0.22810000
H       -0.47180000       1.94750000      -0.76220000
H       -0.58630000       1.79030000       1.00370000
H       -0.91950000      -0.43120000      -0.12220000
H        0.66640000      -0.26970000      -0.90170000
H       -0.14080000      -2.37100000       0.84920000
H        2.91670000      -2.09220000       0.91370000
H        2.00600000      -3.56740000       0.52500000
H        1.94350000      -2.18590000      -0.57400000
H        0.99590000      -3.32700000       2.85890000
H        1.91070000      -0.57180000       3.19990000
H        2.03940000      -1.73430000       4.34620000
