16
Properties=species:S:1:pos:R:3 gdb_26709=T pbc="F F F"
N       -0.17840000       1.42200000       0.03260000
C       -0.01550000       0.00550000      -0.02030000
C       -1.09060000      -0.83680000      -0.07380000
O       -2.41890000      -0.57420000      -0.08850000
N       -0.65040000      -2.13950000      -0.11690000
C        0.72510000      -2.12970000      -0.09060000
O        1.40740000      -3.29890000      -0.12390000
C        1.17010000      -0.83870000      -0.03130000
N        2.56250000      -0.52980000       0.00710000
H        0.26380000       1.88620000      -0.75600000
H        0.23310000       1.82200000       0.87130000
H       -2.47760000       0.39130000      -0.05150000
H       -1.23280000      -2.95690000      -0.16020000
H        2.33940000      -3.03880000      -0.09620000
H        2.81630000      -0.01760000       0.84740000
H        2.84690000       0.04690000      -0.77990000
