23
Properties=species:S:1:pos:R:3 gdb_53534=T pbc="F F F"
C        0.06840000       1.48550000      -0.19350000
C        0.02710000       0.03790000      -0.03760000
C        0.00460000      -1.15930000       0.09540000
C       -0.04890000      -2.61100000       0.24100000
C       -1.46650000      -3.20770000       0.06980000
C       -2.41270000      -2.69560000       1.14880000
C       -1.96330000      -3.10630000      -1.40790000
C       -1.50630000      -4.57030000      -1.64810000
C       -1.39190000      -4.75810000      -0.11110000
H        0.79280000       1.78480000      -0.95930000
H       -0.90850000       1.88250000      -0.49160000
H        0.35330000       1.98040000       0.74180000
H        0.62790000      -3.07140000      -0.49120000
H        0.33570000      -2.90010000       1.22910000
H       -2.49470000      -1.60440000       1.11500000
H       -3.41480000      -3.11810000       1.02160000
H       -2.05790000      -2.97280000       2.14920000
H       -3.05030000      -2.99680000      -1.46280000
H       -1.50820000      -2.32390000      -2.02050000
H       -2.20310000      -5.22660000      -2.17420000
H       -0.53880000      -4.63210000      -2.15320000
H       -0.49660000      -5.25730000       0.27230000
H       -2.26910000      -5.25590000       0.31250000
