13
Properties=species:S:1:pos:R:3 gdb_23703=T pbc="F F F"
C        0.01270000       1.50170000       0.01880000
C        0.01010000      -0.00130000      -0.00980000
C       -0.16000000      -0.72460000      -1.19050000
N       -0.16340000      -2.06210000      -1.22380000
C        0.00410000      -2.65980000      -0.07080000
F        0.00630000      -3.98740000      -0.06580000
C        0.17760000      -1.97350000       1.13230000
N        0.17960000      -0.64760000       1.15610000
H        0.95980000       1.87610000       0.41970000
H       -0.13240000       1.92090000      -0.97980000
H       -0.78250000       1.87430000       0.67210000
H       -0.29820000      -0.21590000      -2.14080000
H        0.31340000      -2.51110000       2.06620000
