15
Properties=species:S:1:pos:R:3 gdb_49332=T pbc="F F F"
N       -0.11750000       1.26150000       0.30080000
C       -0.01480000       0.02200000       0.07610000
C       -1.21020000      -0.88610000      -0.13820000
C       -0.67380000      -2.30330000       0.08670000
C        0.83980000      -2.18690000      -0.04610000
O        1.63520000      -3.07290000      -0.15110000
N        1.15330000      -0.79030000      -0.01330000
C        2.44880000      -0.26110000      -0.12700000
O        3.46440000      -0.89570000      -0.11810000
H        0.77370000       1.73450000       0.44290000
H       -2.02380000      -0.59510000       0.52590000
H       -1.56330000      -0.75460000      -1.16660000
H       -0.88910000      -2.67200000       1.09540000
H       -1.04330000      -3.05070000      -0.61670000
H        2.42270000       0.83730000      -0.24650000
