19
Properties=species:S:1:pos:R:3 gdb_51902=T pbc="F F F"
O       -0.84310000       1.07780000       1.00090000
C       -0.17500000       1.87570000       0.38640000
N        1.10930000       1.65560000      -0.05000000
C        1.81530000       0.47500000       0.16310000
N        2.99290000       0.35000000      -0.28080000
C        3.70930000      -0.87750000      -0.04270000
C        3.03730000      -2.21070000       0.41100000
C        4.04050000      -2.95480000      -0.51150000
C        4.26410000      -1.62730000      -1.28400000
H       -0.53230000       2.88460000       0.10610000
H        1.59410000       2.38080000      -0.55990000
H        1.24390000      -0.26360000       0.72760000
H        4.54550000      -0.64390000       0.62880000
H        3.03040000      -2.45150000       1.47650000
H        2.01700000      -2.29470000       0.02350000
H        4.93730000      -3.26430000       0.03240000
H        3.66400000      -3.80950000      -1.07630000
H        3.57100000      -1.53090000      -2.12480000
H        5.27210000      -1.37950000      -1.62330000
