19
Properties=species:S:1:pos:R:3 gdb_37455=T pbc="F F F"
C        0.01870000       1.54770000       0.15210000
C        1.30950000       0.77230000       0.04040000
C       -0.00600000       0.03490000       0.01900000
C       -0.15510000      -0.62350000      -1.37190000
C       -0.93110000       0.25920000      -2.36260000
O       -0.00210000       1.28270000      -2.75310000
C        1.29290000       0.73790000      -2.64840000
C        1.97750000       0.52930000      -1.29800000
C        1.26300000      -0.61050000      -2.01250000
H       -0.22610000       1.94390000       1.13300000
H       -0.28960000       2.17100000      -0.67530000
H        1.96140000       0.72520000       0.90630000
H       -0.33600000      -0.53960000       0.87780000
H       -0.58060000      -1.62560000      -1.29570000
H       -1.24890000      -0.31220000      -3.24730000
H       -1.80480000       0.74760000      -1.92230000
H        1.92030000       0.97610000      -3.50180000
H        3.06050000       0.59310000      -1.32850000
H        1.72650000      -1.50340000      -2.41440000
