15
Properties=species:S:1:pos:R:3 gdb_43807=T pbc="F F F"
O       -0.09170000       0.11710000       0.40560000
C        0.00090000       1.25270000       0.07790000
O       -0.98550000       2.09080000      -0.40770000
C       -0.05340000       3.19100000      -0.58880000
C       -0.06590000       4.05480000      -1.79610000
C       -0.45480000       4.61170000      -0.43030000
C        1.05100000       2.35520000       0.00430000
C        2.17570000       2.64770000       0.89310000
O        2.36610000       2.22740000      -0.46570000
H        0.89300000       4.33100000      -2.22150000
H       -0.86180000       3.89420000      -2.51450000
H       -1.50650000       4.80970000      -0.25570000
H        0.22630000       5.28820000       0.07540000
H        2.42990000       3.68530000       1.10160000
H        2.45870000       1.92000000       1.65070000
