19
Properties=species:S:1:pos:R:3 gdb_56004=T pbc="F F F"
C        0.12920000       0.77100000       0.94710000
C       -0.00180000      -0.00590000      -0.34430000
O        0.82830000       0.03560000      -1.22360000
C       -1.22530000      -0.91260000      -0.47600000
C       -0.84410000      -2.36900000      -0.13510000
O       -0.43320000      -2.46200000       1.23490000
C       -1.20520000      -3.44350000       1.92490000
C       -2.18960000      -3.94900000       0.90910000
C       -1.98040000      -3.34760000      -0.25560000
H        1.06090000       1.33770000       0.95800000
H       -0.72210000       1.45080000       1.06980000
H        0.09890000       0.06350000       1.78300000
H       -2.04340000      -0.59520000       0.17760000
H       -1.55860000      -0.87670000      -1.51800000
H        0.00290000      -2.64650000      -0.78240000
H       -0.54570000      -4.24170000       2.30070000
H       -1.69280000      -2.98810000       2.80050000
H       -2.93570000      -4.70120000       1.13100000
H       -2.51890000      -3.50660000      -1.18100000
