13
Properties=species:S:1:pos:R:3 gdb_130831=T pbc="F F F"
O       -0.08490000       0.03890000       0.00330000
C       -0.04480000       1.23750000       0.00880000
C        1.32930000       1.94660000      -0.00220000
O        2.37240000       1.34990000      -0.01670000
N        1.28800000       3.35210000       0.00620000
C        2.37610000       4.19030000      -0.00090000
C        1.88490000       5.46470000       0.01180000
C        0.46880000       5.30980000       0.02640000
N        0.10650000       4.04340000       0.02310000
H       -0.93570000       1.88410000       0.02100000
H        3.37330000       3.78430000      -0.01420000
H        2.44950000       6.38270000       0.01090000
H       -0.28730000       6.08180000       0.03920000
