13
Properties=species:S:1:pos:R:3 gdb_129168=T pbc="F F F"
N       -0.07330000       1.31290000       0.05700000
C       -0.00030000       0.04500000      -0.01060000
N        1.13430000      -0.81690000      -0.06580000
C        0.67690000      -2.10710000       0.00610000
C       -0.68100000      -2.13260000       0.01970000
N       -1.11120000      -0.80450000      -0.05140000
C       -0.97380000      -3.50780000       0.00030000
N        0.13270000      -4.24050000      -0.00290000
O        1.22280000      -3.30880000      -0.01640000
H        0.84120000       1.75440000       0.06630000
H        2.07370000      -0.49210000       0.08180000
H       -2.02130000      -0.44210000       0.17170000
H       -1.92160000      -4.02590000       0.00580000
