20
Properties=species:S:1:pos:R:3 gdb_96673=T pbc="F F F"
C        0.08160000       1.45130000      -0.10470000
N        0.11340000       0.00530000      -0.06600000
C        0.50390000      -0.60390000       0.97290000
C        0.98390000      -0.04170000       2.29250000
O        0.53300000      -1.95820000       1.00720000
C        0.09920000      -2.62390000      -0.19100000
C        0.19130000      -4.06060000       0.01120000
C        0.25450000      -5.25480000       0.14330000
C        0.33340000      -6.69830000       0.31000000
H        0.70930000       1.80770000      -0.93040000
H       -0.93950000       1.78790000      -0.32090000
H        0.41500000       1.95440000       0.81340000
H        0.20820000       0.57300000       2.75820000
H        1.24210000      -0.85580000       2.96930000
H        1.86450000       0.59090000       2.14810000
H       -0.92590000      -2.31380000      -0.42490000
H        0.72010000      -2.29370000      -1.03190000
H       -0.64900000      -7.16890000       0.19320000
H        1.00940000      -7.14950000      -0.42460000
H        0.70770000      -6.95700000       1.30660000
