19
Properties=species:S:1:pos:R:3 gdb_70253=T pbc="F F F"
C       -0.08690000       1.49510000       0.02540000
C       -0.04310000      -0.01150000       0.05990000
C       -1.27450000      -0.78190000      -0.40330000
C       -1.05460000      -2.23730000       0.10350000
C       -0.15940000      -2.09020000       1.37100000
C        0.62870000      -0.81800000       1.12010000
N        1.26980000      -0.63200000      -0.19120000
C       -2.29690000      -2.95900000       0.35200000
N       -3.28460000      -3.52450000       0.55490000
H        0.84820000       1.91100000       0.40740000
H       -0.22120000       1.85890000      -0.99960000
H       -0.91650000       1.87890000       0.62930000
H       -2.16750000      -0.35170000       0.06290000
H       -1.42620000      -0.74880000      -1.48710000
H       -0.50900000      -2.80530000      -0.65740000
H       -0.78200000      -1.96580000       2.26320000
H        0.46510000      -2.97510000       1.52800000
H        1.15190000      -0.36220000       1.95600000
H        1.20830000      -1.46570000      -0.77070000
