15
Properties=species:S:1:pos:R:3 gdb_131378=T pbc="F F F"
O        0.00970000       1.35410000       0.03190000
C        0.05340000       0.00610000       0.07370000
N        0.26590000      -0.72880000      -1.01770000
N        0.21900000      -2.02670000      -0.59920000
C        0.02000000      -2.10290000       0.73720000
C       -0.10650000      -0.82460000       1.19820000
O       -0.38870000      -0.71980000       2.53200000
C       -0.20230000      -2.06540000       3.04650000
C       -0.22760000      -3.07710000       1.84540000
H        0.15370000       1.60930000      -0.88810000
H        0.43480000      -2.75150000      -1.25930000
H        0.77270000      -2.10480000       3.54630000
H       -0.98670000      -2.25150000       3.78240000
H       -1.19690000      -3.58280000       1.74850000
H        0.53740000      -3.84950000       1.96970000
