17
Properties=species:S:1:pos:R:3 gdb_37606=T pbc="F F F"
C        0.06220000       1.52480000       0.21030000
C        1.43990000       2.23500000       0.15330000
C        2.66630000       1.40580000       0.58590000
O        3.79100000       1.83270000       0.48640000
C        3.09300000      -1.24680000       0.75010000
C        2.31430000       0.02290000       1.09690000
C        1.21760000      -0.59950000       0.22870000
C        0.16370000       0.07130000      -0.22230000
C        2.06430000      -1.78890000       0.06160000
H       -0.35160000       1.59010000       1.22610000
H       -0.64170000       2.06640000      -0.42880000
H        1.65330000       2.54370000      -0.87670000
H        1.43510000       3.15800000       0.74510000
H        4.09700000      -1.57310000       0.98520000
H        2.03550000       0.10630000       2.15730000
H       -0.57130000      -0.35080000      -0.90010000
H        1.92620000      -2.72540000      -0.46410000
