19
Properties=species:S:1:pos:R:3 gdb_38577=T pbc="F F F"
C       -0.03810000       1.55160000       0.07300000
C        1.51080000       1.47460000       0.01290000
O        2.07860000       1.28990000       1.30500000
C        1.60970000       0.11070000       1.92090000
C        1.80990000      -1.20210000       1.21240000
C        2.28590000      -1.01480000      -0.22090000
C        1.37010000       0.10110000      -0.72470000
C       -0.01230000       0.00010000       0.00030000
C        0.40820000      -0.59350000       1.34150000
H       -0.47870000       2.02630000       0.95300000
H       -0.44760000       2.00000000      -0.83630000
H        2.07320000       2.28420000      -0.45550000
H        1.73510000       0.16560000       2.99600000
H        2.10520000      -2.07870000       1.77840000
H        3.34370000      -0.73030000      -0.27190000
H        2.15620000      -1.93210000      -0.80620000
H        1.31840000       0.21550000      -1.80860000
H       -0.83930000      -0.53570000      -0.47020000
H       -0.33940000      -1.01050000       2.00700000
