13
Properties=species:S:1:pos:R:3 gdb_44655=T pbc="F F F"
O       -0.00620000       0.07700000      -0.51960000
C        0.01100000       1.18930000      -0.11240000
O       -1.03780000       1.92430000       0.38830000
C       -0.16290000       3.09850000       0.60550000
C        0.14200000       3.31720000       2.06260000
C        1.34320000       2.83320000       2.39880000
C        2.01850000       2.19910000       1.23000000
O        3.10880000       1.69220000       1.20120000
C        1.03680000       2.32840000       0.04990000
H       -0.55410000       3.96110000       0.06600000
H       -0.56680000       3.78560000       2.73530000
H        1.79930000       2.84280000       3.38070000
H        1.52180000       2.64190000      -0.87310000
