21
Properties=species:S:1:pos:R:3 gdb_111008=T pbc="F F F"
C       -0.25060000       1.33930000       0.13410000
O        0.35770000       0.08510000      -0.09410000
C        0.84190000      -0.52070000       1.07230000
C       -0.17530000      -1.32150000       1.94540000
C       -0.14700000      -2.40650000       0.84750000
C        1.36000000      -1.97050000       0.78400000
C        2.27440000      -2.28410000      -0.37320000
C        1.79310000      -2.34860000       2.20580000
O        0.67480000      -1.84390000       2.97640000
H        0.44840000       2.04490000       0.60840000
H       -0.54760000       1.73580000      -0.83970000
H       -1.14230000       1.25690000       0.77190000
H        1.50870000       0.15560000       1.62870000
H       -1.08110000      -0.90730000       2.38510000
H       -0.37580000      -3.43090000       1.15160000
H       -0.69270000      -2.12170000      -0.05090000
H        1.87730000      -1.86090000      -1.29990000
H        3.27490000      -1.86510000      -0.21410000
H        2.38350000      -3.36590000      -0.50900000
H        1.89750000      -3.43110000       2.35210000
H        2.72060000      -1.85650000       2.52370000
