14
Properties=species:S:1:pos:R:3 gdb_36117=T pbc="F F F"
N       -0.02600000      -1.14130000       0.27560000
C       -0.03070000       0.00980000       0.18370000
C       -0.03350000       1.46900000       0.04460000
C        1.34740000       2.03590000      -0.12350000
O        2.14670000       2.30820000       1.01920000
C        1.89460000       3.37410000       0.09820000
C        2.85970000       3.18790000      -1.14220000
O        3.65580000       2.03060000      -0.91030000
C        2.32190000       1.84630000      -1.36650000
H       -0.65370000       1.73110000      -0.82110000
H       -0.49880000       1.91500000       0.92950000
H        1.44510000       4.28630000       0.47080000
H        3.22050000       3.94690000      -1.82420000
H        2.14750000       1.27060000      -2.26680000
