19
Properties=species:S:1:pos:R:3 gdb_72517=T pbc="F F F"
C       -0.00500000       1.51100000       0.03210000
C        0.02860000      -0.00200000       0.01300000
C        0.63850000      -0.68210000      -1.24730000
C        0.11070000      -2.16190000      -1.18400000
C       -0.73660000      -2.15530000       0.09870000
O        0.14090000      -2.04580000       1.22640000
C        0.66050000      -0.69160000       1.23720000
C       -1.32370000      -0.73800000       0.03820000
O       -2.44610000      -0.32260000      -0.00420000
H        1.00370000       1.93510000      -0.01080000
H       -0.56990000       1.89330000      -0.82350000
H       -0.49090000       1.88080000       0.94040000
H        0.29520000      -0.17650000      -2.15450000
H        1.73070000      -0.62710000      -1.23150000
H       -0.49310000      -2.41380000      -2.06110000
H        0.91610000      -2.89460000      -1.09940000
H       -1.42420000      -2.98420000       0.25240000
H        1.75620000      -0.72280000       1.18600000
H        0.36840000      -0.20220000       2.17550000
