18
Properties=species:S:1:pos:R:3 gdb_57223=T pbc="F F F"
N        0.02690000       0.85600000       0.14410000
H        0.16960000      -0.14170000       0.25420000
H        0.93460000       1.29910000       0.02920000
H       -1.15380000       1.55540000      -0.95510000
C       -0.65320000       1.43200000       1.29710000
C       -1.59200000       0.55900000       2.07670000
C       -0.29450000       1.02520000       2.70520000
C       -1.04470000       2.86900000       1.03580000
O        0.16810000       3.59580000       0.82990000
C       -1.95940000       3.09370000      -0.19310000
O       -1.85180000       2.22370000      -1.19530000
O       -2.68040000       4.06000000      -0.24050000
H       -2.52380000       0.98870000       2.42790000
H       -1.67300000      -0.48220000       1.78120000
H        0.49840000       0.29470000       2.82680000
H       -0.33760000       1.77440000       3.48780000
H       -1.59410000       3.26180000       1.90100000
H       -0.07500000       4.49060000       0.56450000
