18
Properties=species:S:1:pos:R:3 gdb_107370=T pbc="F F F"
O        0.15030000       1.37910000       0.36100000
C        0.12180000      -0.00560000       0.06580000
C       -1.27520000      -0.53590000      -0.07810000
C       -2.17230000      -0.90410000       1.06690000
C       -1.72720000      -1.96190000       0.06930000
C       -2.64300000      -2.22960000      -1.10850000
C       -2.79200000      -0.87350000      -1.78420000
N       -3.57480000      -0.61000000      -2.73610000
O       -1.94140000       0.03570000      -1.20120000
H       -0.32160000       1.82780000      -0.34920000
H        0.68820000      -0.23200000      -0.85130000
H        0.61700000      -0.51370000       0.89910000
H       -1.72950000      -0.93680000       2.05630000
H       -3.20140000      -0.56000000       1.03910000
H       -1.04350000      -2.73590000       0.39680000
H       -2.19340000      -2.93620000      -1.81350000
H       -3.62570000      -2.62360000      -0.83760000
H       -3.49310000       0.36960000      -3.01280000
