15
Properties=species:S:1:pos:R:3 gdb_77460=T pbc="F F F"
O        0.08400000       1.26150000       0.30880000
C       -0.18340000      -0.11470000       0.05110000
C       -1.58240000      -0.54620000       0.20270000
O       -2.04200000      -1.40570000       1.11530000
C       -2.51810000       0.07960000      -0.78160000
C       -1.60290000      -0.33670000      -1.95730000
O       -1.91190000      -0.64380000      -3.09960000
C       -0.34030000      -0.62050000      -1.33370000
O        0.61860000      -1.32390000      -1.97070000
H        0.75790000       1.54940000      -0.31790000
H        0.50940000      -0.75710000       0.61760000
H       -1.31640000      -1.71220000       1.67520000
H       -3.47770000      -0.43870000      -0.84120000
H       -2.67840000       1.15360000      -0.65190000
H        0.19400000      -1.65370000      -2.78140000
