19
Properties=species:S:1:pos:R:3 gdb_69278=T pbc="F F F"
O       -0.06400000       1.39370000      -0.00500000
C        0.03370000      -0.00550000      -0.02070000
C       -0.48640000      -0.71220000      -1.23230000
C       -1.31380000      -0.69720000       0.06090000
C       -1.47360000      -1.94760000       0.85730000
O       -2.56400000      -2.34070000       1.21140000
C       -0.18340000      -2.65710000       1.24750000
C        0.82440000      -1.63620000       1.80350000
C        1.22480000      -0.59500000       0.74610000
H        0.61540000       1.74490000      -0.59160000
H       -0.88090000      -0.10580000      -2.03950000
H       -0.02380000      -1.64470000      -1.53850000
H       -2.19050000      -0.06060000       0.04450000
H       -0.43620000      -3.42880000       1.97780000
H        0.24350000      -3.16020000       0.36880000
H        0.37220000      -1.12720000       2.66330000
H        1.71620000      -2.15050000       2.17590000
H        1.93410000      -1.04420000       0.03950000
H        1.74090000       0.23850000       1.23120000
