19
Properties=species:S:1:pos:R:3 gdb_51046=T pbc="F F F"
O       -1.02820000       1.40830000      -0.51970000
C        0.01730000       0.86830000      -0.26070000
C        1.38020000       1.50380000      -0.42850000
C        1.34380000       2.86960000      -1.09650000
C        0.56970000       4.03120000      -0.38830000
C        1.75740000       4.98940000      -0.66070000
C        2.63980000       3.76050000      -0.99930000
C        0.94380000       2.74660000      -2.54980000
O        0.87890000       1.71010000      -3.16080000
H        0.03950000      -0.16640000       0.15010000
H        1.83450000       1.56540000       0.57110000
H        2.00220000       0.80340000      -1.00050000
H       -0.40450000       4.29110000      -0.80620000
H        0.43550000       3.81780000       0.67470000
H        1.58770000       5.63040000      -1.52980000
H        2.08810000       5.62060000       0.16660000
H        3.26200000       3.44140000      -0.15890000
H        3.27140000       3.81670000      -1.88990000
H        0.73450000       3.71860000      -3.05340000
