12
Properties=species:S:1:pos:R:3 gdb_202=T pbc="F F F"
C        0.01240000       1.49930000       0.03740000
C        0.02780000       0.00660000      -0.02890000
C       -0.14090000      -0.80370000      -1.12260000
N       -0.03870000      -2.09540000      -0.64860000
C        0.18420000      -2.01120000       0.69200000
N        0.23020000      -0.76490000       1.09900000
H        0.96270000       1.88650000       0.42070000
H       -0.16060000       1.93590000      -0.95010000
H       -0.77410000       1.85570000       0.71140000
H       -0.31890000      -0.59160000      -2.16390000
H       -0.11490000      -2.93760000      -1.19290000
H        0.30350000      -2.88720000       1.31240000
