20
Properties=species:S:1:pos:R:3 gdb_97149=T pbc="F F F"
C       -0.02520000       1.39820000      -0.12010000
N       -0.04190000      -0.05370000      -0.18960000
C       -1.11080000      -0.67410000       0.05460000
O       -2.31750000      -0.08050000       0.35300000
C       -3.22030000      -1.03600000       0.93480000
C       -2.65380000      -2.40290000       0.60810000
C       -2.36780000      -2.65600000      -0.84340000
C       -1.25780000      -2.15930000       0.06920000
C       -0.04020000      -2.99820000       0.35750000
H        0.93500000       1.72330000       0.29320000
H       -0.09700000       1.81950000      -1.13090000
H       -0.83830000       1.82240000       0.48100000
H       -3.26820000      -0.87070000       2.01860000
H       -4.21240000      -0.85320000       0.50900000
H       -2.86810000      -3.22940000       1.27490000
H       -2.29280000      -3.68930000      -1.16400000
H       -2.78190000      -1.97960000      -1.58510000
H        0.73310000      -2.80680000      -0.39150000
H        0.38460000      -2.75640000       1.33680000
H       -0.28570000      -4.06420000       0.34140000
