20
Properties=species:S:1:pos:R:3 gdb_90887=T pbc="F F F"
C        0.03020000       1.50240000       0.07950000
C        0.00170000      -0.00990000       0.03200000
C        0.26970000      -0.71960000      -1.32160000
N       -0.92770000      -1.61580000      -1.15600000
C       -0.87770000      -2.17400000       0.22750000
C        0.44800000      -2.21100000       0.97310000
C        0.82090000      -0.71080000       1.12800000
O        2.19450000      -0.41370000       0.94560000
C       -1.34270000      -0.78440000       0.02870000
H        1.05860000       1.86490000      -0.01270000
H       -0.56250000       1.93910000      -0.73070000
H       -0.37090000       1.87520000       1.02950000
H        0.09110000      -0.07110000      -2.18280000
H        1.22930000      -1.22970000      -1.44890000
H       -1.59260000      -2.97890000       0.36040000
H        0.33610000      -2.71360000       1.93900000
H        1.22750000      -2.74180000       0.41510000
H        0.47580000      -0.34580000       2.10990000
H        2.69530000      -0.84620000       1.64360000
H       -2.34730000      -0.39750000       0.15780000
