13
Properties=species:S:1:pos:R:3 gdb_132447=T pbc="F F F"
N        0.00790000       1.40040000       0.14650000
C       -0.07810000       0.02210000       0.04510000
C       -1.22410000      -0.71680000       0.02180000
C       -1.17950000      -2.14610000      -0.01690000
C        0.03210000      -2.72340000      -0.02980000
F        0.25360000      -4.01940000      -0.05940000
O        1.17980000      -2.04470000      -0.01830000
C        1.21830000      -0.65070000       0.00820000
O        2.29270000      -0.10590000      -0.00910000
H        0.91830000       1.75750000      -0.10940000
H       -0.76250000       1.92680000      -0.23540000
H       -2.18960000      -0.22230000       0.03900000
H       -2.07250000      -2.75320000      -0.03220000
