12
Properties=species:S:1:pos:R:3 gdb_21698=T pbc="F F F"
N        0.02100000       1.30750000      -0.02670000
C        0.00710000      -0.04440000       0.02310000
N       -1.12630000      -0.67920000       0.08350000
O       -1.08700000      -2.07310000       0.19000000
N        0.06370000      -2.78440000       0.22380000
C        1.18540000      -2.15150000       0.14270000
C        1.31410000      -0.71750000       0.01980000
N        2.38040000      -0.01200000      -0.09330000
H        0.90510000       1.72970000      -0.26400000
H       -0.83670000       1.80060000      -0.20780000
H        2.07050000      -2.78190000       0.17140000
H        3.21680000      -0.59950000      -0.09070000
