18
Properties=species:S:1:pos:R:3 gdb_34798=T pbc="F F F"
C        0.01480000      -1.27710000      -0.01480000
C       -0.00510000      -0.07430000       0.00400000
C       -0.05010000       1.37240000      -0.01460000
C       -0.12320000       2.07440000       1.38400000
C        1.40960000       1.75160000       1.50340000
C        1.35410000       2.08710000      -0.01620000
N        1.11900000       3.56070000       0.05780000
C       -0.20720000       4.04750000      -0.36060000
C       -0.01430000       3.56370000       1.03140000
H        0.03290000      -2.33860000      -0.02710000
H       -0.77680000       1.68390000      -0.76580000
H       -0.85290000       1.77120000       2.13310000
H        2.01730000       2.41760000       2.11910000
H        1.61810000       0.70400000       1.71760000
H        2.13310000       1.81080000      -0.72460000
H       -0.22300000       5.12280000      -0.51750000
H       -0.80510000       3.50100000      -1.08040000
H        0.03710000       4.27510000       1.85190000
