17
Properties=species:S:1:pos:R:3 gdb_8502=T pbc="F F F"
C       -0.01690000       1.44940000      -0.00750000
C        0.03900000      -0.04850000      -0.07710000
C        0.57230000      -0.96470000      -1.20660000
C        0.07400000      -1.94560000      -0.12530000
O        0.00060000      -3.32380000      -0.14240000
C        0.53200000      -1.00790000       1.05670000
N       -0.80180000      -0.97890000       1.74210000
C       -1.12440000      -1.03790000       0.27830000
H        0.98530000       1.88670000      -0.07410000
H       -0.61520000       1.86220000      -0.82690000
H       -0.46700000       1.76210000       0.93940000
H        0.01850000      -0.95010000      -2.15080000
H        1.65190000      -0.93110000      -1.39100000
H        0.88920000      -3.67850000      -0.25560000
H        1.48600000      -0.97980000       1.58780000
H       -0.99010000      -1.88840000       2.17210000
H       -2.14080000      -1.04460000      -0.11920000
