22
Properties=species:S:1:pos:R:3 gdb_100896=T pbc="F F F"
C        0.00270000       1.53290000      -0.08140000
N       -0.06210000       0.09780000       0.16530000
C       -1.37370000      -0.51020000      -0.03870000
C       -1.84170000      -0.60130000      -1.49830000
C       -1.37450000      -1.89410000       0.67000000
N       -2.70560000      -2.49370000       0.66210000
C       -2.81870000      -3.70720000       1.46740000
C       -0.41400000      -2.79840000       0.00980000
N        0.36360000      -3.48050000      -0.50610000
H        1.02250000       1.88090000       0.10630000
H       -0.27880000       1.84740000      -1.10000000
H       -0.65790000       2.05300000       0.62180000
H        0.62530000      -0.38220000      -0.40820000
H       -2.08990000       0.10280000       0.52730000
H       -1.91360000       0.39420000      -1.94450000
H       -1.13450000      -1.19250000      -2.09000000
H       -2.81960000      -1.08410000      -1.56600000
H       -0.97880000      -1.72250000       1.68680000
H       -3.35860000      -1.79640000       1.00480000
H       -2.20620000      -4.49810000       1.02420000
H       -2.49980000      -3.57970000       2.51630000
H       -3.85830000      -4.04450000       1.46000000
