19
Properties=species:S:1:pos:R:3 gdb_75510=T pbc="F F F"
C        0.19560000       1.48290000       0.08710000
C        0.03170000      -0.00460000      -0.02870000
C       -0.07680000      -0.67210000      -1.17800000
C       -0.12530000      -2.17720000      -1.22860000
O        0.53220000      -2.77400000      -0.12090000
C        0.07080000      -2.31500000       1.12630000
C        1.22210000      -2.16210000       2.13280000
O        1.14580000      -0.71950000       2.08090000
C       -0.04650000      -0.78040000       1.25000000
H        1.11220000       1.72060000       0.63920000
H        0.24820000       1.95950000      -0.89530000
H       -0.63460000       1.93290000       0.64670000
H       -0.09830000      -0.14390000      -2.12850000
H       -1.16580000      -2.54100000      -1.30600000
H        0.40320000      -2.54240000      -2.11520000
H       -0.80640000      -2.88800000       1.45590000
H        1.01660000      -2.54560000       3.13990000
H        2.18250000      -2.54500000       1.77360000
H       -0.92300000      -0.45920000       1.83390000
