14
Properties=species:S:1:pos:R:3 gdb_42548=T pbc="F F F"
O        0.03820000       0.06830000       0.02190000
C        0.00370000       1.26130000      -0.04570000
C       -1.07230000       2.30210000      -0.02890000
N       -0.14050000       3.25080000       0.71380000
C        1.02720000       2.39160000       0.10130000
C        0.92230000       3.18990000      -1.21080000
C       -0.49070000       3.51650000      -0.72340000
C       -1.31840000       4.59760000      -1.14430000
C       -1.99690000       5.50990000      -1.53510000
H       -2.12740000       2.22820000       0.19970000
H        1.95690000       2.26390000       0.64810000
H        1.53840000       4.09130000      -1.19000000
H        1.05660000       2.65910000      -2.15690000
H       -2.59930000       6.31800000      -1.87030000
