16
Properties=species:S:1:pos:R:3 gdb_51791=T pbc="F F F"
N       -0.19570000       1.27680000       0.18190000
C       -0.10860000       0.02520000       0.07100000
O       -1.23590000      -0.72720000       0.06630000
C       -1.04690000      -2.11560000      -0.02510000
O       -0.53750000      -2.61120000       1.19810000
C       -1.17180000      -3.83810000       1.55900000
C       -2.44210000      -3.89750000       0.73940000
O       -3.23520000      -2.71820000       0.87890000
C       -2.36850000      -2.82020000      -0.24890000
H        0.73310000       1.69280000       0.15780000
H        0.81100000      -0.56480000      -0.03180000
H       -0.34460000      -2.33720000      -0.84680000
H       -0.52760000      -4.69790000       1.32270000
H       -1.35690000      -3.82140000       2.63770000
H       -2.97260000      -4.83170000       0.58070000
H       -2.83020000      -2.83630000      -1.23100000
