17
Properties=species:S:1:pos:R:3 gdb_46861=T pbc="F F F"
O        0.07890000      -0.04230000       0.09650000
C        0.00340000       1.15950000       0.06210000
C       -1.29020000       1.95300000       0.03920000
C       -1.37870000       2.92380000       1.23840000
C       -0.08210000       3.68810000       1.51900000
C        0.98880000       3.05500000       2.34380000
C        1.22820000       3.27080000       0.84960000
C        1.25830000       2.06460000      -0.01400000
O        2.15450000       1.80530000      -0.78280000
H       -1.29090000       2.53940000      -0.89030000
H       -2.13790000       1.26410000       0.01030000
H       -2.18570000       3.63700000       1.04790000
H       -1.66960000       2.36190000       2.13260000
H       -0.19570000       4.76100000       1.63460000
H        1.57680000       3.66550000       3.01880000
H        0.83330000       2.03520000       2.68350000
H        1.94810000       4.03330000       0.57390000
