17
Properties=species:S:1:pos:R:3 gdb_107772=T pbc="F F F"
C       -0.03710000       1.53310000      -0.01020000
C        0.03390000       0.00150000       0.07680000
C       -1.32460000      -0.61760000      -0.00630000
O       -2.26900000      -0.23610000       1.04920000
C       -2.91580000      -1.48720000       0.81830000
C       -3.05690000      -1.69990000      -0.69160000
C       -1.78320000      -2.12610000       0.12540000
C       -2.22430000      -0.60400000      -1.27690000
O       -2.11440000      -0.10410000      -2.36070000
H        0.96200000       1.96860000       0.07650000
H       -0.46810000       1.84390000      -0.96540000
H       -0.65830000       1.93690000       0.79380000
H        0.63850000      -0.39760000      -0.74640000
H        0.51280000      -0.30910000       1.01240000
H       -3.63790000      -1.85330000       1.53630000
H       -3.80060000      -2.33660000      -1.14900000
H       -1.27760000      -3.07990000       0.14450000
