23
Properties=species:S:1:pos:R:3 gdb_57402=T pbc="F F F"
C       -0.35150000       1.55600000       0.12260000
C       -0.04680000       0.04430000       0.09760000
C        0.78530000      -0.34580000       1.33630000
C       -1.38980000      -0.71300000       0.16880000
C        0.65440000      -0.38150000      -1.22620000
C        1.35380000       0.57620000      -2.24110000
C        2.58600000       0.71580000      -1.31630000
C        2.15820000      -0.76930000      -1.38230000
O        1.99520000      -0.61440000      -2.84700000
H        0.55600000       2.16600000       0.12460000
H       -0.95130000       1.85070000      -0.74520000
H       -0.92190000       1.81460000       1.02160000
H        0.23240000      -0.11640000       2.25410000
H        1.00310000      -1.41930000       1.34160000
H        1.73770000       0.18900000       1.38620000
H       -2.02770000      -0.46450000      -0.68620000
H       -1.23140000      -1.79680000       0.16400000
H       -1.93660000      -0.45660000       1.08260000
H        0.04050000      -1.09950000      -1.77610000
H        0.91410000       1.30510000      -2.92300000
H        3.51920000       0.94380000      -1.83330000
H        2.48480000       1.25610000      -0.37510000
H        2.68540000      -1.65750000      -1.03190000
