23
Properties=species:S:1:pos:R:3 gdb_121227=T pbc="F F F"
C       -0.04340000       1.34010000       0.51960000
C       -0.07710000      -0.18970000       0.43920000
C       -1.43010000      -0.71670000      -0.02850000
C       -1.75570000      -0.61090000      -1.53670000
O       -1.87210000      -2.04440000      -1.66480000
C       -1.61790000      -2.24220000      -0.25680000
C       -0.45250000      -3.19310000      -0.04410000
O       -0.28050000      -3.36770000       1.34550000
C        0.76090000      -4.26030000       1.66240000
H        0.93790000       1.69930000       0.84420000
H       -0.25710000       1.79640000      -0.45370000
H       -0.78820000       1.71530000       1.23030000
H        0.70990000      -0.53280000      -0.24400000
H        0.15370000      -0.62460000       1.41800000
H       -2.21860000      -0.30150000       0.60590000
H       -2.69240000      -0.10210000      -1.79510000
H       -0.95070000      -0.21000000      -2.16760000
H       -2.49750000      -2.65400000       0.25600000
H       -0.68570000      -4.15070000      -0.54000000
H        0.46490000      -2.80220000      -0.51190000
H        0.81490000      -4.32860000       2.75160000
H        0.57520000      -5.26500000       1.25110000
H        1.73180000      -3.90830000       1.27920000
