16
Properties=species:S:1:pos:R:3 gdb_20970=T pbc="F F F"
C       -0.04320000       1.39570000       0.03970000
N        0.27440000      -0.01630000       0.01970000
C       -0.13240000      -0.77920000       1.19090000
C        0.17620000      -0.64590000      -1.20720000
C        0.06410000      -0.10240000      -2.47540000
N        0.07500000      -1.19680000      -3.28570000
N        0.16780000      -2.33230000      -2.59270000
N        0.22780000      -2.00670000      -1.32850000
H        0.56520000       1.92920000      -0.69820000
H       -1.10610000       1.60690000      -0.17270000
H        0.19540000       1.80350000       1.02530000
H       -1.22780000      -0.83780000       1.30210000
H        0.25660000      -1.79400000       1.11280000
H        0.28120000      -0.30450000       2.08550000
H       -0.01960000       0.90040000      -2.85270000
H        0.01530000      -1.23590000      -4.29020000
