17
Properties=species:S:1:pos:R:3 gdb_47662=T pbc="F F F"
O       -0.07050000       0.00290000       0.19210000
C       -0.06420000       1.20680000       0.00930000
C       -1.40180000       1.95070000      -0.07520000
O       -1.32000000       3.36210000       0.08720000
C       -0.96600000       3.77240000       1.35380000
N        0.15530000       4.21770000       1.69950000
C        1.30140000       4.24500000       0.80540000
C        1.31860000       3.32470000      -0.43620000
N        1.09420000       1.91290000      -0.14200000
H       -1.83740000       1.77880000      -1.06340000
H       -2.06300000       1.49230000       0.67020000
H       -1.78350000       3.72080000       2.07740000
H        1.44530000       5.28060000       0.46870000
H        2.17410000       4.00980000       1.42710000
H        0.60760000       3.66930000      -1.18510000
H        2.31710000       3.39920000      -0.88080000
H        1.90880000       1.32650000      -0.03050000
