21
Properties=species:S:1:pos:R:3 gdb_64227=T pbc="F F F"
C       -0.16030000       1.56430000      -0.05220000
C       -0.01720000       0.04700000       0.01230000
C       -1.28290000      -0.65650000      -0.45930000
O        1.13350000      -0.38310000      -0.77440000
C        1.84180000      -0.83350000       0.39620000
C        0.62860000      -0.55610000       1.30200000
C        0.83930000       0.31940000       2.54290000
C        1.61850000      -0.36880000       3.56690000
C        2.26550000      -0.96210000       4.38810000
H        0.76890000       2.06810000       0.22560000
H       -0.40600000       1.86320000      -1.07610000
H       -0.96100000       1.91900000       0.60580000
H       -1.53240000      -0.34990000      -1.48020000
H       -1.14590000      -1.74130000      -0.45260000
H       -2.13060000      -0.40830000       0.18920000
H        2.16360000      -1.87710000       0.30950000
H        2.72210000      -0.21180000       0.61110000
H        0.12020000      -1.47530000       1.60320000
H        1.34910000       1.25050000       2.26840000
H       -0.13330000       0.61300000       2.95930000
H        2.83640000      -1.47410000       5.12240000
