27
Properties=species:S:1:pos:R:3 gdb_122140=T pbc="F F F"
C       -1.08410000       1.22920000      -0.49560000
C       -0.41290000      -0.13960000      -0.35830000
C        0.13030000      -0.65730000      -1.68390000
O        0.72940000      -1.91940000      -1.46110000
C        1.29480000      -2.55480000      -2.61080000
C        2.79890000      -2.75210000      -2.38720000
C        3.56790000      -1.44610000      -2.17760000
C        0.57550000      -3.88700000      -2.85390000
C       -0.92400000      -3.73920000      -3.11940000
H       -0.38170000       1.98340000      -0.86760000
H       -1.92870000       1.19220000      -1.19260000
H       -1.46550000       1.57910000       0.46800000
H        0.41310000      -0.08830000       0.36050000
H       -1.12360000      -0.87420000       0.03780000
H       -0.68650000      -0.73820000      -2.42010000
H        0.86460000       0.05550000      -2.09450000
H        1.14800000      -1.90590000      -3.48940000
H        2.93030000      -3.40160000      -1.51260000
H        3.20990000      -3.29630000      -3.24680000
H        4.63140000      -1.63750000      -2.00480000
H        3.48730000      -0.78940000      -3.05160000
H        3.17810000      -0.90580000      -1.31060000
H        1.05840000      -4.39380000      -3.69880000
H        0.73300000      -4.52400000      -1.97440000
H       -1.41770000      -3.25300000      -2.27360000
H       -1.11450000      -3.13760000      -4.01560000
H       -1.39640000      -4.71490000      -3.26940000
