17
Properties=species:S:1:pos:R:3 gdb_13518=T pbc="F F F"
C       -0.52070000       1.36810000      -0.20460000
C        0.10590000      -0.00690000      -0.06620000
N        1.53190000      -0.15070000      -0.48210000
H        1.70620000      -0.38510000      -1.45470000
H        2.11720000       1.09200000       0.89670000
C        1.70420000      -1.23760000       0.51650000
C        0.53680000      -0.59700000       1.31990000
C        1.02000000       0.45220000       2.31510000
O        1.95610000       1.30380000       1.84210000
O        0.61550000       0.52880000       3.44370000
H        0.06620000       2.13580000       0.30470000
H       -0.60250000       1.64290000      -1.26190000
H       -1.53070000       1.36700000       0.21770000
H       -0.53140000      -0.75430000      -0.56330000
H        1.43020000      -2.23260000       0.14240000
H        2.69110000      -1.28160000       0.98460000
H       -0.16430000      -1.25760000       1.82420000
