21
Properties=species:S:1:pos:R:3 gdb_86045=T pbc="F F F"
C       -0.50370000       1.26130000      -0.39970000
C        0.10420000      -0.11920000      -0.17690000
C        1.36020000      -0.45960000      -1.03680000
C        2.25630000      -0.34820000       0.22010000
C        3.16760000       0.87030000       0.26190000
C        0.97540000      -0.27970000       1.10700000
O        3.05450000      -1.54820000       0.35960000
C        3.52940000      -1.85770000       1.57620000
O        4.23080000      -2.80690000       1.77430000
H        0.24850000       2.05510000      -0.32830000
H       -0.96290000       1.33110000      -1.39180000
H       -1.27930000       1.47440000       0.34400000
H       -0.68350000      -0.87290000      -0.25370000
H        1.35590000      -1.47970000      -1.42500000
H        1.59850000       0.22930000      -1.85200000
H        2.59880000       1.78500000       0.07330000
H        3.65330000       0.97250000       1.23810000
H        3.94500000       0.78290000      -0.50330000
H        0.93710000       0.54130000       1.82870000
H        0.78540000      -1.21820000       1.63230000
H        3.20070000      -1.16010000       2.36930000
