18
Properties=species:S:1:pos:R:3 gdb_16982=T pbc="F F F"
C       -0.04640000       1.60280000      -0.21910000
C        1.50540000       1.47820000       0.12750000
C        1.09810000       0.20010000       0.89680000
C        1.09120000      -1.33670000       1.11690000
C       -0.48950000      -1.03120000       1.10300000
C       -0.59520000      -0.17950000       2.35830000
O        0.54300000       0.67710000       2.15920000
C       -0.11140000       0.04790000       0.01080000
H       -0.57180000       2.20070000       0.52360000
H       -0.30320000       1.94770000      -1.22260000
H        2.09370000       1.26600000      -0.76810000
H        1.97310000       2.27910000       0.70340000
H        1.40870000      -1.91260000       0.24730000
H        1.51600000      -1.74240000       2.03930000
H       -1.22920000      -1.81640000       0.94360000
H       -1.51650000       0.41400000       2.41040000
H       -0.48880000      -0.75190000       3.28800000
H        0.14690000      -0.45930000      -0.92090000
