17
Properties=species:S:1:pos:R:3 gdb_56371=T pbc="F F F"
N        0.13010000       1.40830000      -0.16940000
C       -0.01120000      -0.05360000      -0.03010000
C        0.61750000      -0.58210000       1.19580000
C        1.15040000      -0.95910000       2.20500000
C       -1.46380000      -0.35360000       0.03060000
N       -2.59260000      -0.59370000       0.06990000
C        0.55910000      -0.69780000      -1.30120000
C        2.02350000      -1.04100000      -1.40920000
C        0.98720000      -2.13590000      -1.34800000
H       -0.19900000       1.86640000       0.67630000
H        1.12120000       1.61780000      -0.25480000
H        1.61050000      -1.29690000       3.10140000
H        0.08120000      -0.28730000      -2.18380000
H        2.51630000      -0.83700000      -2.35280000
H        2.64630000      -0.90310000      -0.53240000
H        0.92960000      -2.70980000      -0.43020000
H        0.76210000      -2.69650000      -2.24760000
