16
Properties=species:S:1:pos:R:3 gdb_82733=T pbc="F F F"
O        0.01110000       1.45280000       0.06970000
C       -0.00870000       0.05370000       0.03040000
C       -1.40360000      -0.57040000      -0.06320000
C       -2.02160000      -0.25800000      -1.44370000
N       -1.51690000      -1.56110000      -2.01340000
C       -1.14320000      -1.99040000      -0.63710000
C       -0.06410000      -1.72830000      -1.63210000
C        0.67880000      -0.50070000      -1.22220000
O        1.62730000       0.02670000      -1.75370000
H        0.78960000       1.72080000      -0.44080000
H        0.51390000      -0.38470000       0.90170000
H       -2.02140000      -0.45510000       0.82500000
H       -3.11210000      -0.30130000      -1.45360000
H       -1.68180000       0.64750000      -1.95430000
H       -1.39120000      -2.96100000      -0.22490000
H        0.42330000      -2.51220000      -2.19810000
