23
Properties=species:S:1:pos:R:3 gdb_108252=T pbc="F F F"
C       -0.12090000       1.62330000      -0.17300000
C       -0.16080000       0.08960000      -0.14570000
C        0.77940000      -0.52320000      -1.15640000
C        2.31510000      -0.43210000      -0.95710000
C        2.44860000      -1.93650000      -1.34890000
C        0.90610000      -2.04460000      -1.52740000
C        0.17600000      -3.18600000      -0.85730000
C        0.43640000      -1.58510000      -2.92000000
O        0.41350000      -0.19640000      -2.52370000
H        0.87570000       1.99950000       0.08120000
H       -0.37520000       1.99240000      -1.17030000
H       -0.83130000       2.04800000       0.54240000
H        0.10350000      -0.27830000       0.85400000
H       -1.18020000      -0.25710000      -0.35440000
H        2.79870000       0.28570000      -1.62250000
H        2.61730000      -0.22090000       0.07260000
H        3.03830000      -2.15030000      -2.24470000
H        2.82700000      -2.56200000      -0.53610000
H        0.46040000      -3.28070000       0.19640000
H       -0.91050000      -3.05260000      -0.90210000
H        0.41230000      -4.13970000      -1.34570000
H        1.12300000      -1.76990000      -3.75680000
H       -0.56620000      -1.93670000      -3.20120000
