18
Properties=species:S:1:pos:R:3 gdb_46333=T pbc="F F F"
O        0.17250000       0.07130000      -0.47730000
C        0.12380000       1.18830000      -0.06800000
O       -0.93210000       1.82040000       0.53770000
C       -0.21930000       3.10080000       0.58080000
C        1.04530000       2.43060000      -0.00970000
C        2.26540000       2.26270000       0.90980000
C        3.35220000       1.80950000      -0.07370000
C        3.04740000       2.66630000      -1.31350000
N        1.59330000       2.93920000      -1.25350000
H       -0.69520000       3.83350000      -0.07340000
H       -0.15350000       3.47270000       1.60570000
H        2.51750000       3.23550000       1.34790000
H        2.08490000       1.56030000       1.72660000
H        4.36620000       1.95110000       0.30810000
H        3.21660000       0.74830000      -0.30530000
H        3.60230000       3.61320000      -1.27900000
H        3.31900000       2.16520000      -2.24730000
H        1.10510000       2.57890000      -2.06250000
