23
Properties=species:S:1:pos:R:3 gdb_106514=T pbc="F F F"
C        0.10980000       1.53860000      -0.20630000
C       -0.02150000       0.05440000       0.15800000
C       -1.43370000      -0.51010000       0.04680000
C       -2.19890000      -0.45850000      -1.31430000
C       -2.88770000      -1.76910000      -0.84090000
C       -1.61400000      -2.05510000      -0.00680000
C       -4.03090000      -1.40270000       0.11180000
O       -3.75650000      -0.19560000       0.81010000
C       -2.38960000       0.01460000       1.13810000
H        1.15520000       1.85850000      -0.15860000
H       -0.24990000       1.72750000      -1.22330000
H       -0.46030000       2.18230000       0.47060000
H        0.63140000      -0.53260000      -0.50070000
H        0.35460000      -0.11060000       1.17770000
H       -2.83180000       0.40830000      -1.51840000
H       -1.52440000      -0.63580000      -2.15670000
H       -3.20980000      -2.50610000      -1.58040000
H       -0.82840000      -2.53390000      -0.59960000
H       -1.73060000      -2.59150000       0.94170000
H       -4.96180000      -1.21990000      -0.43700000
H       -4.21250000      -2.23240000       0.81610000
H       -2.13690000      -0.46410000       2.10020000
H       -2.28990000       1.09720000       1.26960000
