19
Properties=species:S:1:pos:R:3 gdb_12788=T pbc="F F F"
C       -0.28600000       1.33530000       0.09190000
O        0.24790000       0.05390000      -0.15920000
C        0.79760000      -0.55050000       0.98350000
C       -0.13830000      -1.22030000       2.03090000
N        0.53660000      -2.55300000       1.84620000
C        0.31070000      -2.88870000       0.42670000
C        1.39120000      -1.93080000       0.73850000
C        2.85140000      -2.21940000       0.55840000
H        0.48130000       2.02720000       0.47370000
H       -0.66870000       1.72030000      -0.85610000
H       -1.11130000       1.30340000       0.81940000
H        1.51810000       0.12900000       1.46340000
H       -0.00190000      -0.86130000       3.05300000
H       -1.20520000      -1.22870000       1.78350000
H        0.61220000      -3.90190000       0.17850000
H       -0.59960000      -2.54890000      -0.06120000
H        3.18400000      -1.91140000      -0.43960000
H        3.45800000      -1.68410000       1.29700000
H        3.05110000      -3.28910000       0.66790000
