14
Properties=species:S:1:pos:R:3 gdb_129204=T pbc="F F F"
N       -0.06450000       1.33910000       0.01090000
C       -0.01570000       0.05660000       0.00320000
N        1.14830000      -0.72580000      -0.00760000
N        1.25040000      -2.06900000      -0.01590000
C        0.14350000      -2.74180000      -0.01380000
C       -1.15110000      -2.10540000      -0.00320000
C       -2.38470000      -2.92720000      -0.00130000
O       -2.38840000      -4.13450000      -0.00830000
C       -1.22250000      -0.75250000       0.00500000
H        0.86710000       1.75830000       0.00830000
H        2.04150000      -0.25520000      -0.00960000
H        0.22110000      -3.82150000      -0.02050000
H       -3.32840000      -2.33980000       0.00710000
H       -2.16660000      -0.21800000       0.01320000
