16
Properties=species:S:1:pos:R:3 gdb_8119=T pbc="F F F"
C       -0.06550000       1.52010000       0.04370000
C       -0.04810000       0.01730000       0.07650000
C       -1.18660000      -0.79090000      -0.51370000
C       -1.05080000      -2.19050000       0.11140000
O       -1.65350000      -3.16910000      -0.23700000
C       -0.03800000      -2.13360000       1.27070000
C        0.62470000      -0.78750000       1.11780000
O        1.22230000      -0.61280000      -0.17500000
H        0.81770000       1.92400000       0.54500000
H       -0.06780000       1.88500000      -0.98900000
H       -0.96070000       1.91070000       0.53900000
H       -2.16550000      -0.37360000      -0.24510000
H       -1.14730000      -0.85830000      -1.60480000
H       -0.57660000      -2.22010000       2.22300000
H        0.65850000      -2.97440000       1.20780000
H        1.15880000      -0.32770000       1.94590000
