17
Properties=species:S:1:pos:R:3 gdb_70082=T pbc="F F F"
C       -0.07520000       1.49740000       0.03890000
C        0.04290000      -0.00770000      -0.01490000
O       -0.28530000      -0.70610000       1.17910000
C        1.09500000      -0.72060000       0.75480000
C        1.65900000      -1.98420000       0.23230000
C        1.23200000      -2.54620000      -0.90480000
C        0.16180000      -1.94400000      -1.72860000
O       -1.16630000      -1.86860000      -1.17340000
C       -0.43690000      -0.65990000      -1.29300000
H        0.46250000       1.96150000      -0.79510000
H       -1.12560000       1.80150000      -0.02640000
H        0.33490000       1.88210000       0.97520000
H        1.74650000      -0.13620000       1.40370000
H        2.46840000      -2.43850000       0.79620000
H        1.69200000      -3.45890000      -1.27160000
H        0.17000000      -2.18620000      -2.79020000
H       -0.80780000       0.02680000      -2.05410000
