20
Properties=species:S:1:pos:R:3 gdb_127095=T pbc="F F F"
C        0.64890000       0.21880000      -1.03080000
N       -0.09190000       0.06890000       0.22320000
C        0.02430000       1.24630000       1.07390000
C       -1.40470000      -0.40470000       0.07760000
C       -2.64080000       0.21750000       0.16350000
C       -3.57030000      -0.81760000      -0.05110000
N       -2.97750000      -1.98890000      -0.25870000
N       -1.65390000      -1.72520000      -0.16310000
C       -0.69310000      -2.79760000      -0.28330000
H        1.70510000       0.39800000      -0.80670000
H        0.57730000      -0.69380000      -1.62590000
H        0.27500000       1.05730000      -1.64220000
H       -0.38510000       2.15900000       0.60760000
H       -0.50150000       1.07270000       2.01500000
H        1.08170000       1.42710000       1.29160000
H       -2.83220000       1.26170000       0.34750000
H       -4.64910000      -0.75770000      -0.06460000
H       -0.41390000      -2.98000000      -1.32770000
H        0.20040000      -2.53230000       0.28540000
H       -1.14100000      -3.70550000       0.12210000
