19
Properties=species:S:1:pos:R:3 gdb_108495=T pbc="F F F"
C        0.13490000       1.42260000      -0.10760000
O       -0.02090000       0.02590000       0.03690000
C        0.59900000      -0.51580000       1.17510000
C        2.15040000      -0.60320000       1.16520000
O        2.09110000      -2.01930000       1.43090000
C        0.65780000      -2.06210000       1.22550000
C       -0.10550000      -2.52980000       2.46890000
C       -0.39190000      -1.23250000       3.19240000
C       -0.02140000      -0.15260000       2.50350000
H        1.19490000       1.71740000      -0.12840000
H       -0.32150000       1.69650000      -1.06150000
H       -0.36610000       1.98390000       0.69350000
H        2.58360000      -0.38770000       0.17890000
H        2.70120000      -0.06230000       1.94240000
H        0.39570000      -2.58080000       0.29820000
H       -1.02740000      -3.07290000       2.22370000
H        0.52290000      -3.21000000       3.05510000
H       -0.85050000      -1.20880000       4.17570000
H       -0.12750000       0.87060000       2.84510000
