18
Properties=species:S:1:pos:R:3 gdb_65529=T pbc="F F F"
O       -0.25980000       1.46640000      -0.13740000
C       -0.02540000       0.07360000      -0.00890000
C        0.26070000      -0.51140000       1.40690000
N       -0.98610000      -1.35380000       1.37110000
C       -2.10110000      -0.40090000       1.23980000
C       -1.32290000      -0.72420000       0.02840000
C        0.93660000      -0.35550000      -1.09920000
C        2.39460000      -0.35130000      -0.90820000
O        1.65540000      -1.57370000      -0.94500000
H        0.59430000       1.91380000      -0.14510000
H        1.13720000      -1.15920000       1.44330000
H        0.28320000       0.21810000       2.22240000
H       -3.07330000      -0.87310000       1.34120000
H       -2.01720000       0.58740000       1.68400000
H       -1.71900000      -1.30730000      -0.79680000
H        0.55510000      -0.17810000      -2.10660000
H        3.05040000      -0.17510000      -1.75900000
H        2.81370000      -0.09360000       0.06410000
