21
Properties=species:S:1:pos:R:3 gdb_82843=T pbc="F F F"
C       -0.22860000       1.60060000      -0.02240000
C        0.04700000       0.10380000       0.00720000
C        1.04280000      -0.56630000      -0.98160000
C        2.41810000       0.14180000      -1.04120000
C        3.05100000      -0.34600000       0.28110000
C        2.19090000       0.14960000       1.46480000
C        0.84830000      -0.55960000       1.16330000
C        1.35050000      -1.63560000       0.13090000
O        2.75170000      -1.74970000       0.25830000
H        0.68180000       2.20170000       0.05820000
H       -0.72650000       1.88570000      -0.95600000
H       -0.88600000       1.89130000       0.80470000
H       -0.91070000      -0.42510000      -0.07800000
H        0.66780000      -0.88140000      -1.95640000
H        3.00510000      -0.22740000      -1.88660000
H        2.35270000       1.23000000      -1.11850000
H        4.12730000      -0.20200000       0.37820000
H        2.61590000      -0.21390000       2.40430000
H        2.11320000       1.23820000       1.52230000
H        0.30390000      -0.86890000       2.05660000
H        0.87250000      -2.61180000       0.09060000
