18
Properties=species:S:1:pos:R:3 gdb_93368=T pbc="F F F"
C       -0.10920000       1.64400000      -0.12130000
C       -0.00440000       0.12110000      -0.00370000
C        0.52510000      -0.52310000      -1.27910000
O        1.91290000      -0.20690000      -1.50100000
C        2.78280000      -0.55760000      -0.51740000
O        3.95530000      -0.65610000      -0.74770000
C        2.18390000      -0.77180000       0.84480000
C        1.89340000       0.44330000       1.66340000
N        0.80470000      -0.36990000       1.14060000
H        0.82090000       2.09630000      -0.47640000
H       -0.89520000       1.90040000      -0.83840000
H       -0.37180000       2.09180000       0.84090000
H       -1.01570000      -0.27330000       0.15860000
H        0.41140000      -1.61260000      -1.23210000
H       -0.00190000      -0.15910000      -2.16390000
H        2.53870000      -1.67260000       1.33730000
H        2.02910000       0.40340000       2.74070000
H        2.10910000       1.40900000       1.21560000
