20
Properties=species:S:1:pos:R:3 gdb_80537=T pbc="F F F"
C       -0.03340000       1.60460000       0.08880000
C        0.05140000       0.08020000       0.01080000
C        0.99260000      -0.47870000      -1.11790000
C        1.97100000      -1.30940000      -0.24030000
N        1.12100000      -1.96720000       0.80150000
C        0.08710000      -2.91230000       0.40880000
C        0.75300000      -0.58390000       1.23630000
C        2.23270000      -0.29640000       0.89640000
O        3.14050000       0.34050000       1.32910000
H        0.95850000       2.05460000       0.20480000
H       -0.48580000       2.01990000      -0.81740000
H       -0.64390000       1.92300000       0.94060000
H       -0.95920000      -0.32610000      -0.09480000
H        0.46480000      -1.09690000      -1.84820000
H        1.50930000       0.31610000      -1.66420000
H        2.75190000      -1.89950000      -0.71810000
H        0.56580000      -3.82840000       0.04930000
H       -0.50770000      -3.17090000       1.29030000
H       -0.60060000      -2.55890000      -0.37460000
H        0.31920000      -0.45250000       2.22720000
