14
Properties=species:S:1:pos:R:3 gdb_31220=T pbc="F F F"
O       -0.11880000       1.41970000      -0.33860000
C        0.01590000       0.07140000       0.09370000
C       -1.34180000      -0.54580000       0.03970000
C       -1.79200000      -1.84870000      -0.04080000
N       -3.17430000      -1.89060000      -0.01450000
C       -3.54750000      -0.63990000       0.07410000
N       -2.47620000       0.20940000       0.11920000
C       -0.97830000      -3.00720000      -0.13720000
N       -0.27290000      -3.92250000      -0.21590000
H        0.71420000       1.87330000      -0.18060000
H        0.70310000      -0.50430000      -0.54190000
H        0.40920000       0.02620000       1.12180000
H       -4.56660000      -0.28560000       0.10440000
H       -2.47200000       1.21730000       0.13320000
