18
Properties=species:S:1:pos:R:3 gdb_4072=T pbc="F F F"
C       -1.04760000       0.66160000      -0.17610000
C        0.27920000      -0.02980000      -0.03880000
C        0.62640000      -0.69890000       1.26760000
N       -0.35550000      -1.73450000       1.59290000
C       -0.07400000      -3.06470000       1.06080000
C        0.09640000      -2.77370000       2.51140000
N        1.17470000      -0.10480000      -0.94820000
O        0.79260000       0.56740000      -2.12030000
H       -0.93770000       1.73740000       0.00790000
H       -1.43990000       0.54700000      -1.18840000
H       -1.75620000       0.25480000       0.54710000
H        1.65490000      -1.08640000       1.20120000
H        0.59650000       0.04380000       2.07690000
H       -0.93550000      -3.62410000       0.70780000
H        0.82870000      -3.19150000       0.46610000
H        1.11590000      -2.71200000       2.88880000
H       -0.63690000      -3.11640000       3.23590000
H        1.53870000       0.39290000      -2.70350000
