13
Properties=species:S:1:pos:R:3 gdb_130763=T pbc="F F F"
O       -0.01790000       0.17320000       0.69090000
C       -0.04590000       1.28500000       0.28600000
O       -0.91320000       1.82690000      -0.60090000
N       -0.58300000       3.19330000      -0.81180000
C        0.43140000       3.39320000      -0.05020000
O        0.83230000       2.30020000       0.64730000
C        1.15960000       4.65290000       0.10000000
C        1.76190000       4.99210000       1.42530000
N        2.62060000       4.63520000       0.29790000
H        0.78550000       5.43820000      -0.54770000
H        1.79520000       6.03600000       1.72110000
H        1.63270000       4.28040000       2.23500000
H        2.94840000       3.67650000       0.39640000
