16
Properties=species:S:1:pos:R:3 gdb_49324=T pbc="F F F"
N        0.09740000       1.17870000      -0.29140000
C        0.03430000      -0.03060000       0.02720000
O        0.97090000      -0.89350000       0.54980000
C       -0.00550000      -1.97170000       0.61870000
C        0.37970000      -3.38270000       0.35750000
C       -0.02170000      -2.92540000       1.75630000
C       -1.07640000      -1.07250000       0.01330000
C       -2.32460000      -0.72270000       0.79580000
O       -2.79660000      -1.40160000       1.66960000
H        1.02700000       1.56680000      -0.12390000
H       -0.30540000      -4.00810000      -0.20540000
H        1.43070000      -3.58040000       0.17840000
H        0.77060000      -2.82400000       2.48970000
H       -0.98680000      -3.21620000       2.15070000
H       -1.37670000      -1.33400000      -1.00850000
H       -2.79050000       0.23450000       0.47970000
