22
Properties=species:S:1:pos:R:3 gdb_40562=T pbc="F F F"
C        0.24010000       1.54590000      -0.01480000
N        1.29450000       0.53720000      -0.15790000
C       -0.10500000       0.09290000       0.02310000
C       -0.44570000      -0.65370000       1.26380000
C       -1.45780000      -1.52880000       1.25930000
C       -1.88150000      -2.35290000       2.44670000
C       -0.82330000      -2.35330000       3.55850000
C       -0.27160000      -0.94060000       3.77540000
C        0.39280000      -0.40770000       2.49900000
H        0.28160000       2.12490000       0.90320000
H       -0.07640000       2.11180000      -0.88770000
H        1.56770000       0.44360000      -1.13200000
H       -0.62200000      -0.27390000      -0.86230000
H       -2.02950000      -1.66750000       0.34260000
H       -2.83660000      -1.96860000       2.83720000
H       -2.09510000      -3.38030000       2.12450000
H       -1.24760000      -2.75310000       4.48590000
H        0.00050000      -3.02060000       3.27380000
H       -1.09510000      -0.27350000       4.06300000
H        0.44640000      -0.92750000       4.60270000
H        1.37670000      -0.87280000       2.35360000
H        0.60220000       0.66300000       2.60580000
