13
Properties=species:S:1:pos:R:3 gdb_133261=T pbc="F F F"
C       -0.02270000       1.43100000      -0.00460000
N       -0.00700000      -0.02950000       0.01670000
N       -0.04380000      -0.62760000      -1.19070000
N       -0.03340000      -1.90040000      -1.26380000
C        0.01510000      -2.65160000      -0.11560000
C        0.05330000      -2.09820000       1.11870000
F        0.09980000      -2.82590000       2.21690000
C        0.04430000      -0.65790000       1.27790000
O        0.07450000      -0.02230000       2.31160000
H        0.87590000       1.81610000       0.48250000
H       -0.06290000       1.73990000      -1.04710000
H       -0.89210000       1.79800000       0.54540000
H        0.02120000      -3.72660000      -0.25430000
