18
Properties=species:S:1:pos:R:3 gdb_6582=T pbc="F F F"
C        0.00380000       1.53620000       0.02390000
C        0.02600000       0.02550000       0.03100000
C        0.97420000      -0.81500000      -0.90550000
C        0.60430000      -1.93220000       0.11110000
O        1.37720000      -3.08860000       0.15080000
C        0.65050000      -0.80870000       1.20940000
C       -0.91870000      -2.02830000      -0.11920000
C       -1.29220000      -0.74930000      -0.16910000
H        1.00640000       1.94890000       0.17410000
H       -0.37650000       1.92150000      -0.92900000
H       -0.64010000       1.92570000       0.82060000
H        0.66570000      -0.95670000      -1.94360000
H        2.02350000      -0.50940000      -0.83940000
H        1.03510000      -3.65880000       0.84760000
H        1.67150000      -0.50250000       1.46050000
H        0.04170000      -0.94470000       2.10700000
H       -1.48880000      -2.94160000      -0.22340000
H       -2.26870000      -0.30810000      -0.31850000
