18
Properties=species:S:1:pos:R:3 gdb_22426=T pbc="F F F"
C       -0.00810000       1.50730000       0.10130000
C       -0.02810000       0.00850000       0.06880000
C        1.15350000      -0.83980000      -0.31860000
C        0.56600000      -1.00020000       1.07660000
O        1.28790000      -0.72840000       2.21680000
C       -0.69450000      -1.79070000       0.99410000
C       -1.30380000      -0.85740000      -0.04880000
N       -1.10190000      -2.75230000       1.70990000
O       -2.40910000      -3.13490000       1.34000000
H        0.96090000       1.87720000       0.45010000
H       -0.18840000       1.92780000      -0.89520000
H       -0.77920000       1.89910000       0.77350000
H        1.06970000      -1.62480000      -1.06640000
H        2.10660000      -0.31870000      -0.30870000
H        1.91220000      -1.44780000       2.36360000
H       -2.20430000      -0.37120000       0.33950000
H       -1.52360000      -1.28130000      -1.03330000
H       -2.60030000      -3.83290000       1.97530000
