21
Properties=species:S:1:pos:R:3 gdb_6040=T pbc="F F F"
C        0.03630000       1.45360000       0.23750000
C        0.10690000      -0.04650000      -0.06520000
C        0.66980000      -0.44400000      -1.46030000
C       -0.19650000       0.13900000      -2.59610000
C        2.12370000       0.03030000      -1.62200000
C        0.50830000      -1.98120000      -1.53650000
N        1.64190000      -2.73240000      -1.63790000
O       -0.59330000      -2.50000000      -1.49520000
H        1.02060000       1.93190000       0.20890000
H       -0.61500000       1.98420000      -0.46330000
H       -0.37100000       1.61110000       1.24120000
H        0.72240000      -0.53470000       0.70250000
H       -0.89070000      -0.48760000       0.01820000
H       -0.18830000       1.23220000      -2.57580000
H        0.18250000      -0.17630000      -3.57450000
H       -1.22570000      -0.21350000      -2.50510000
H        2.76560000      -0.32440000      -0.80710000
H        2.55130000      -0.29880000      -2.57570000
H        2.17320000       1.12260000      -1.61560000
H        2.56340000      -2.33950000      -1.68070000
H        1.53450000      -3.73260000      -1.67860000
