19
Properties=species:S:1:pos:R:3 gdb_57061=T pbc="F F F"
C       -0.29730000       1.51150000      -0.11450000
C        0.01090000       0.02020000      -0.07190000
C        1.33640000      -0.44290000      -0.71990000
O        1.83940000      -0.93710000       0.54100000
C        0.61500000      -0.60160000       1.21870000
C        0.84600000       0.30340000       2.43930000
O       -0.40930000       0.71830000       2.97780000
C        1.67660000      -0.36900000       3.43770000
C        2.30580000      -0.95930000       4.27470000
H        0.57890000       2.11540000       0.14410000
H       -0.60760000       1.80430000      -1.12310000
H       -1.09920000       1.76830000       0.58210000
H       -0.85630000      -0.54410000      -0.42320000
H        1.25180000      -1.24260000      -1.46570000
H        1.96990000       0.35640000      -1.12550000
H        0.08880000      -1.50450000       1.56270000
H        1.34640000       1.22070000       2.11250000
H       -0.74570000      -0.00610000       3.51700000
H        2.88210000      -1.46700000       5.00850000
