18
Properties=species:S:1:pos:R:3 gdb_20864=T pbc="F F F"
C       -0.11780000       1.57570000      -0.03350000
C       -0.06510000       0.04660000      -0.03400000
C        0.79060000      -0.51860000      -1.18610000
C        0.86600000      -2.01300000      -1.20230000
C        1.81800000      -2.89830000      -0.73060000
C        1.29540000      -4.18030000      -1.00320000
N        0.10930000      -4.11670000      -1.60020000
N       -0.12780000      -2.79310000      -1.70590000
H        0.88430000       2.00650000       0.06980000
H       -0.54700000       1.95950000      -0.96590000
H       -0.72820000       1.95100000       0.79330000
H        0.34030000      -0.31710000       0.91720000
H       -1.08120000      -0.36110000      -0.10550000
H        0.39270000      -0.15390000      -2.14300000
H        1.80820000      -0.12070000      -1.10890000
H        2.75540000      -2.64510000      -0.26170000
H        1.73630000      -5.14420000      -0.79420000
H       -0.98050000      -2.48740000      -2.14400000
