21
Properties=species:S:1:pos:R:3 gdb_120582=T pbc="F F F"
C       -0.17410000       1.51330000       0.14640000
C       -0.15430000       0.00320000      -0.10100000
C        0.91420000      -0.40900000      -1.11540000
N        0.91200000      -1.86090000      -1.27790000
C        0.11710000      -2.45220000      -2.33570000
C        1.61850000      -2.47920000      -2.40890000
C        2.35300000      -1.67500000      -3.47050000
C        2.29800000      -3.71300000      -2.05060000
N        2.85300000      -4.69510000      -1.79750000
H        0.78770000       1.86530000       0.53530000
H       -0.38100000       2.06830000      -0.77560000
H       -0.94450000       1.78220000       0.87470000
H        0.02820000      -0.53610000       0.83470000
H       -1.13550000      -0.32880000      -0.46300000
H        0.74370000       0.12930000      -2.06250000
H        1.90530000      -0.11540000      -0.74960000
H       -0.43930000      -3.34940000      -2.08070000
H       -0.37350000      -1.78880000      -3.04880000
H        1.77200000      -0.80800000      -3.78770000
H        3.32220000      -1.33030000      -3.09780000
H        2.53510000      -2.30060000      -4.34880000
