19
Properties=species:S:1:pos:R:3 gdb_73485=T pbc="F F F"
C        0.07600000       1.50500000      -0.07440000
C       -0.01640000      -0.00030000      -0.01650000
O        0.63670000      -0.55430000      -1.14570000
C        0.07950000      -1.85900000      -1.36110000
C       -0.70070000      -2.10270000      -0.07640000
O        0.30500000      -2.10990000       0.96950000
C        0.28100000      -0.72730000       1.35690000
C       -1.20820000      -0.52630000       1.72090000
C       -1.38140000      -0.73520000       0.19810000
H        1.12670000       1.80680000      -0.12550000
H       -0.42600000       1.88310000      -0.96990000
H       -0.37030000       1.97780000       0.80350000
H       -0.55390000      -1.86260000      -2.26140000
H        0.88730000      -2.58650000      -1.48400000
H       -1.30920000      -3.00710000      -0.03570000
H        1.11990000      -0.50250000       2.01430000
H       -1.63330000      -1.27030000       2.39630000
H       -1.46830000       0.48280000       2.04220000
H       -2.28610000      -0.49500000      -0.35930000
