18
Properties=species:S:1:pos:R:3 gdb_85392=T pbc="F F F"
C        0.00080000       1.45680000       0.00170000
N        0.00210000       0.00350000       0.02600000
C       -1.31780000      -0.55080000      -0.23310000
C       -1.26790000      -2.05660000      -0.35780000
N       -2.07190000      -2.65880000      -1.13670000
N       -0.32050000      -2.66840000       0.46290000
C        0.59450000      -2.03780000       1.28930000
O        1.35450000      -2.66910000       1.98790000
C        0.54800000      -0.51890000       1.26640000
H        1.02000000       1.82760000       0.14620000
H       -0.35610000       1.80820000      -0.97080000
H       -0.64070000       1.90190000       0.78600000
H       -2.04380000      -0.29240000       0.56660000
H       -1.71410000      -0.15760000      -1.17030000
H       -1.95870000      -3.67410000      -1.09260000
H       -0.26060000      -3.67930000       0.46290000
H        1.57300000      -0.16740000       1.40740000
H       -0.02990000      -0.19700000       2.15890000
