16
Properties=species:S:1:pos:R:3 gdb_33915=T pbc="F F F"
N        0.03340000      -1.15180000      -0.15440000
C        0.05680000      -0.00020000      -0.04820000
C        0.06010000       1.41550000       0.14800000
O        0.23740000       2.26080000      -0.99640000
C        1.15640000       2.41740000       0.08360000
C        0.48810000       3.27940000       1.17960000
C       -0.52620000       4.35880000       0.69840000
C       -1.67990000       3.30630000       0.76490000
C       -0.66880000       2.22960000       1.25240000
H        2.20740000       2.28530000      -0.14830000
H        1.11910000       3.48760000       2.04270000
H       -0.64030000       5.17940000       1.40940000
H       -0.32660000       4.77150000      -0.29170000
H       -2.44340000       3.53610000       1.51080000
H       -2.16770000       3.08610000      -0.18560000
H       -0.87580000       1.66830000       2.16210000
