16
Properties=species:S:1:pos:R:3 gdb_77340=T pbc="F F F"
O        0.11120000       1.36580000       0.26910000
C        0.05260000      -0.01120000       0.03250000
C       -1.38320000      -0.57960000      -0.02060000
C       -1.22470000      -1.80350000      -0.97250000
N       -0.13000000      -1.39130000      -1.83920000
C        0.60190000      -0.35380000      -1.35830000
O        1.50950000       0.24510000      -1.89880000
C       -1.97970000      -0.91240000       1.26080000
C       -2.46540000      -1.20640000       2.31980000
H        0.82450000       1.69230000      -0.30060000
H        0.63780000      -0.57350000       0.77980000
H       -1.99240000       0.17800000      -0.52870000
H       -0.98070000      -2.70780000      -0.40200000
H       -2.13740000      -1.99490000      -1.54260000
H        0.07840000      -1.82310000      -2.72550000
H       -2.89660000      -1.45160000       3.25880000
