21
Properties=species:S:1:pos:R:3 gdb_86142=T pbc="F F F"
C       -0.26810000       1.58650000      -0.02430000
C        0.02570000       0.08010000      -0.02010000
C        0.80260000      -0.45280000      -1.24870000
C        2.24540000      -0.72650000      -0.75790000
O        3.08410000       0.41940000      -0.84870000
C        2.04860000      -1.20480000       0.69680000
C        3.26960000      -1.22830000       1.60750000
C        0.90140000      -0.31450000       1.18550000
O        0.72480000       0.05260000       2.32010000
H        0.63840000       2.17370000      -0.21100000
H       -0.98770000       1.84010000      -0.80810000
H       -0.67460000       1.89380000       0.94250000
H       -0.92820000      -0.44790000       0.09890000
H        0.35970000      -1.38590000      -1.61210000
H        0.81430000       0.25150000      -2.08440000
H        2.74490000      -1.47910000      -1.37290000
H        2.73330000       1.11470000      -0.28120000
H        1.61030000      -2.21480000       0.63570000
H        3.81340000      -0.28230000       1.54890000
H        2.95980000      -1.37980000       2.64460000
H        3.95950000      -2.02800000       1.32390000
