21
Properties=species:S:1:pos:R:3 gdb_104397=T pbc="F F F"
C        0.29200000       1.64850000      -0.07920000
C        0.00230000       0.16340000       0.13380000
O        0.44020000      -0.64290000      -0.95570000
C        1.81520000      -0.98860000      -0.75330000
C        2.09760000      -0.84380000       0.75600000
C        0.72450000      -0.44310000       1.35730000
O        0.82270000       0.50390000       2.40510000
C       -0.04050000      -1.66530000       1.87130000
O        0.69230000      -2.16310000       2.98980000
H        1.36600000       1.84310000      -0.15630000
H       -0.18540000       1.98200000      -1.00460000
H       -0.09480000       2.23560000       0.75680000
H       -1.08230000       0.01610000       0.20220000
H        1.94860000      -2.01140000      -1.11950000
H        2.46620000      -0.33450000      -1.34940000
H        2.48260000      -1.75870000       1.20970000
H        2.80890000      -0.04100000       0.96140000
H        1.04380000      -0.00370000       3.19630000
H       -1.04840000      -1.35050000       2.17710000
H       -0.13350000      -2.41940000       1.07800000
H        0.15660000      -2.82020000       3.44210000
