20
Properties=species:S:1:pos:R:3 gdb_107349=T pbc="F F F"
C        0.21650000       1.44940000       0.30190000
C       -0.24950000       0.07400000      -0.19090000
C        0.57140000      -0.45060000      -1.34710000
C        0.51710000       0.25370000      -2.69310000
C        0.93790000      -0.79900000      -3.73140000
O        1.22550000      -0.57410000      -4.87670000
C        0.92130000      -2.18690000      -3.06930000
C        0.82770000      -1.90800000      -1.58630000
N        1.86810000      -1.05460000      -0.98960000
H        1.26830000       1.41110000       0.60160000
H        0.11390000       2.21360000      -0.47600000
H       -0.37110000       1.77580000       1.16490000
H       -0.18450000      -0.64830000       0.62980000
H       -1.30420000       0.12090000      -0.49310000
H       -0.50280000       0.58520000      -2.93150000
H        1.16000000       1.13660000      -2.76840000
H        0.04290000      -2.73590000      -3.43380000
H        1.80240000      -2.76420000      -3.36870000
H        0.43000000      -2.67260000      -0.92530000
H        2.59450000      -0.82950000      -1.66780000
