21
Properties=species:S:1:pos:R:3 gdb_120561=T pbc="F F F"
C        0.31480000       1.32630000       0.53460000
O        0.65990000      -0.02850000       0.36650000
C       -0.25050000      -0.91060000       0.97930000
C        0.23210000      -2.32500000       0.71640000
C        1.42650000      -2.85030000       1.53910000
C        0.42860000      -3.90360000       2.06060000
C        0.08160000      -3.90940000       3.53870000
O       -1.12660000      -4.60760000       3.76160000
O       -0.66000000      -3.30490000       1.30040000
H        0.28950000       1.61220000       1.59790000
H        1.07560000       1.92330000       0.02600000
H       -0.66930000       1.55350000       0.09530000
H       -0.31290000      -0.72810000       2.06590000
H       -1.26730000      -0.78930000       0.56770000
H        0.33180000      -2.47540000      -0.36570000
H        2.26920000      -3.23280000       0.96390000
H        1.79300000      -2.15300000       2.29630000
H        0.60870000      -4.92960000       1.71620000
H        0.86440000      -4.41990000       4.11160000
H        0.02100000      -2.87000000       3.90290000
H       -1.76770000      -4.22360000       3.15060000
