18
Properties=species:S:1:pos:R:3 gdb_98804=T pbc="F F F"
C        0.25030000       1.41970000       0.15400000
N        0.35210000      -0.01940000       0.00400000
C        0.44160000      -0.61940000      -1.21210000
O        0.41050000      -0.03740000      -2.28090000
C        0.56370000      -2.14250000      -1.12790000
C        1.36830000      -2.87590000      -2.23780000
C        2.24310000      -3.58450000      -1.15480000
C        1.55180000      -2.71570000      -0.09900000
O        1.74090000      -2.47880000       1.06310000
H        1.17470000       1.85070000       0.55590000
H        0.06590000       1.84340000      -0.83380000
H       -0.57650000       1.68370000       0.82120000
H        0.54570000      -0.58860000       0.81690000
H       -0.44030000      -2.55420000      -0.97120000
H        0.78590000      -3.53820000      -2.87760000
H        1.92000000      -2.17400000      -2.86360000
H        2.02800000      -4.64910000      -1.01830000
H        3.32750000      -3.46000000      -1.21770000
