16
Properties=species:S:1:pos:R:3 gdb_127321=T pbc="F F F"
C        0.00870000       1.45600000       0.05260000
N       -0.01050000       0.01250000       0.01300000
C       -0.05520000      -0.79480000      -1.13300000
C       -0.02980000      -2.12150000      -0.79090000
C        0.03760000      -2.17170000       0.64220000
C        0.04890000      -0.84610000       1.07000000
N        0.11050000      -0.82600000       2.42220000
N        0.14240000      -2.10560000       2.91560000
C        0.09780000      -2.90590000       1.85580000
H        0.95760000       1.83700000       0.44950000
H       -0.11740000       1.83990000      -0.96100000
H       -0.80970000       1.84550000       0.66920000
H       -0.10380000      -0.32340000      -2.10260000
H       -0.05970000      -2.94530000      -1.48650000
H        0.14360000      -0.05720000       3.06590000
H        0.11120000      -3.97480000       2.01130000
