18
Properties=species:S:1:pos:R:3 gdb_68507=T pbc="F F F"
C        0.00950000       1.54840000       0.02420000
C        0.01570000       0.04140000      -0.00950000
C        0.43310000      -0.79940000      -1.26540000
C       -0.34750000      -1.97290000      -0.59320000
C        0.40540000      -2.16760000       0.73110000
N        1.78690000      -1.63540000       0.75820000
C        0.66010000      -0.75560000       1.14130000
C       -1.29260000      -0.81460000      -0.13770000
O       -2.46460000      -0.60890000      -0.08420000
H        1.02430000       1.95130000      -0.05910000
H       -0.58870000       1.95700000      -0.79610000
H       -0.42100000       1.91670000       0.96180000
H       -0.05600000      -0.44480000      -2.17430000
H        1.49960000      -0.95140000      -1.41130000
H       -0.69890000      -2.84140000      -1.14430000
H        0.10470000      -2.94080000       1.42750000
H        2.23410000      -1.96590000       1.61040000
H        0.56090000      -0.40650000       2.16270000
