16
Properties=species:S:1:pos:R:3 gdb_19097=T pbc="F F F"
C       -0.00790000       1.52550000       0.13390000
C        1.52630000       1.47040000      -0.04410000
C        2.17250000       0.72920000       1.19800000
O        1.15940000       0.33420000       2.15010000
C        0.72840000      -0.67190000       1.20620000
C       -0.00010000      -0.01060000      -0.03550000
C        1.39320000       0.07630000      -0.75900000
C        2.08350000      -0.62820000       0.44530000
H       -0.39890000       1.93390000       1.06860000
H       -0.48450000       2.01180000      -0.72180000
H        2.07770000       2.31980000      -0.44780000
H        3.05360000       1.16410000       1.67150000
H        0.26990000      -1.53680000       1.68720000
H       -0.86810000      -0.53840000      -0.43120000
H        1.56550000      -0.10750000      -1.81680000
H        2.84140000      -1.40940000       0.44210000
