16
Properties=species:S:1:pos:R:3 gdb_66666=T pbc="F F F"
C       -0.01000000       1.50740000       0.03590000
C       -0.05560000       0.02270000      -0.06730000
C        0.54040000      -0.98140000      -1.09390000
C        0.83830000      -1.88960000       0.05860000
N        0.28740000      -0.90080000       1.07790000
C       -1.04850000      -0.98910000       0.38300000
C       -0.50800000      -2.03220000      -0.63580000
C       -1.08890000      -3.09650000      -1.35430000
C       -1.59960000      -4.00540000      -1.95840000
H        1.02220000       1.87280000       0.00360000
H       -0.56690000       1.97770000      -0.78190000
H       -0.45340000       1.82700000       0.98390000
H        0.98790000      -0.88620000      -2.07300000
H        1.61740000      -2.61710000       0.24690000
H       -1.98990000      -0.90560000       0.91310000
H       -2.04660000      -4.80700000      -2.49160000
