18
Properties=species:S:1:pos:R:3 gdb_84502=T pbc="F F F"
O       -0.02980000       1.48860000       0.04400000
C        0.04550000       0.07180000      -0.02080000
C        0.71120000      -0.56660000       1.17490000
C       -0.00150000      -1.58560000       1.65520000
C       -1.25140000      -1.80360000       0.88360000
C       -1.69720000      -3.18650000       0.53930000
N       -2.46890000      -2.36690000       1.47750000
C       -1.37720000      -0.60230000      -0.06090000
O       -2.34870000       0.28540000       0.46180000
H       -0.47390000       1.69150000       0.87680000
H        0.59960000      -0.13730000      -0.94320000
H        1.66750000      -0.22040000       1.54920000
H        0.27820000      -2.22430000       2.48750000
H       -2.18570000      -3.37260000      -0.41410000
H       -1.10570000      -4.01820000       0.91590000
H       -2.29400000      -2.65020000       2.43890000
H       -1.64690000      -0.91170000      -1.07930000
H       -2.30590000       1.07730000      -0.08800000
