23
Properties=species:S:1:pos:R:3 gdb_60068=T pbc="F F F"
C       -1.50380000      -0.44370000      -0.04030000
C        0.00850000      -0.34150000       0.19970000
C        0.46760000      -1.37270000       1.23930000
C        0.76470000      -0.46550000      -1.13630000
C        2.27390000      -0.23090000      -1.06890000
C        3.19990000      -1.42460000      -0.86530000
C        3.12270000      -0.77140000      -2.21300000
C        2.68380000       1.02540000      -0.49650000
C        3.01150000       2.08090000      -0.01960000
H       -1.85020000       0.31590000      -0.74920000
H       -1.77300000      -1.42610000      -0.44770000
H       -2.06080000      -0.31020000       0.89290000
H        0.22120000       0.65800000       0.60130000
H        0.30200000      -2.39600000       0.87940000
H        1.52990000      -1.26600000       1.47360000
H       -0.09330000      -1.25810000       2.17280000
H        0.59270000      -1.46390000      -1.56110000
H        0.33700000       0.25200000      -1.84820000
H        4.09280000      -1.27190000      -0.27090000
H        2.72730000      -2.39160000      -0.73380000
H        2.59600000      -1.28750000      -3.00880000
H        3.96120000      -0.16880000      -2.54050000
H        3.30520000       3.01050000       0.40060000
