18
Properties=species:S:1:pos:R:3 gdb_78703=T pbc="F F F"
O       -0.00420000       1.48420000      -0.08720000
C        0.04790000       0.07760000      -0.03030000
C        0.04430000      -0.60720000       1.35220000
C       -1.48070000      -0.28130000       1.57360000
C       -1.32420000      -0.59460000       0.03600000
C       -0.73080000      -1.84900000       0.77870000
C       -1.77940000      -1.74360000       1.87960000
C       -2.06490000      -2.48040000       3.11950000
N       -3.03300000      -2.46440000       1.98290000
H        0.89110000       1.82480000       0.00390000
H        0.75270000      -0.33300000      -0.76840000
H        0.81350000      -0.63340000       2.12560000
H       -1.89200000       0.62700000       2.01120000
H       -2.12310000      -0.60320000      -0.70510000
H       -0.29300000      -2.73010000       0.31080000
H       -1.61320000      -3.45030000       3.31110000
H       -2.30830000      -1.91250000       4.01470000
H       -3.79930000      -1.82730000       2.18960000
