17
Properties=species:S:1:pos:R:3 gdb_88273=T pbc="F F F"
C       -0.75170000       1.05030000       0.30340000
N        0.05900000      -0.14870000       0.10770000
C        1.32550000      -0.02270000      -0.55690000
C        1.28680000      -0.36850000       0.91030000
C        1.78250000       0.64350000       1.87270000
O        1.77650000       1.84830000       1.69600000
C        2.34110000       0.06880000       3.19910000
N        2.75970000       1.04470000       4.03270000
O        2.38670000      -1.12720000       3.41900000
H       -0.17490000       1.96380000       0.48640000
H       -1.35760000       1.18400000      -0.59800000
H       -1.42910000       0.88400000       1.14640000
H        1.58660000      -0.80990000      -1.25970000
H        1.68560000       0.97560000      -0.80190000
H        1.42880000      -1.39320000       1.22940000
H        2.68070000       2.00350000       3.73470000
H        3.15510000       0.80750000       4.92620000
