14
Properties=species:S:1:pos:R:3 gdb_13850=T pbc="F F F"
O       -0.26950000      -0.04490000       0.62760000
C       -0.14730000       1.15160000       0.03980000
O        0.88880000       1.55950000      -0.41160000
C       -1.45250000       1.96980000       0.03040000
C       -1.67390000       2.72590000      -1.30660000
N       -2.75250000       1.91880000      -1.89040000
C       -3.25390000       1.11180000      -0.90900000
N       -2.61330000       1.06960000       0.20390000
H       -1.22290000      -0.15650000       0.82000000
H       -1.38190000       2.65790000       0.87980000
H       -1.99440000       3.76150000      -1.14620000
H       -0.77130000       2.72440000      -1.92160000
H       -3.33410000       2.27230000      -2.63240000
H       -4.13850000       0.51400000      -1.10800000
