19
Properties=species:S:1:pos:R:3 gdb_77914=T pbc="F F F"
C        0.43950000       1.44550000      -1.32290000
C        0.35380000      -0.03760000      -0.97400000
C        1.57740000      -1.04120000      -0.96560000
C        2.02780000      -0.49630000       0.43880000
C        2.84800000       0.78730000       0.59840000
C        0.43850000      -0.54420000       0.51520000
O       -0.36780000      -0.15660000       1.55640000
C        0.62660000      -1.91650000      -0.13490000
O        0.23760000      -3.03990000      -0.02010000
H        0.79920000       1.58230000      -2.34850000
H       -0.56750000       1.87220000      -1.27270000
H        1.06780000       2.03230000      -0.65720000
H       -0.50320000      -0.45710000      -1.51380000
H        2.21040000      -1.32310000      -1.80120000
H        2.47850000      -1.27330000       1.06560000
H        2.43440000       1.42470000       1.38700000
H        3.86830000       0.52590000       0.89460000
H        2.92500000       1.37560000      -0.31530000
H       -0.70840000      -0.94900000       1.98830000
