23
Properties=species:S:1:pos:R:3 gdb_73666=T pbc="F F F"
C       -0.16770000       1.55100000       0.10880000
C        0.00140000       0.02910000      -0.00420000
C       -1.36970000      -0.70740000       0.02730000
C       -1.08100000      -2.04490000       0.72130000
C       -0.10300000      -1.64100000       1.83640000
C        0.84050000      -0.60950000       1.17550000
C        2.11040000      -1.23350000       0.52280000
C        1.92370000      -1.00950000      -0.95500000
C        0.80570000      -0.34430000      -1.23060000
H        0.80150000       2.06050000       0.09500000
H       -0.76220000       1.94570000      -0.72360000
H       -0.68130000       1.82010000       1.03890000
H       -2.08540000      -0.12850000       0.62510000
H       -1.80230000      -0.81970000      -0.97200000
H       -1.98170000      -2.54030000       1.09540000
H       -0.59380000      -2.73400000       0.02130000
H       -0.66230000      -1.16440000       2.65100000
H        0.43700000      -2.48730000       2.27240000
H        1.13590000       0.15510000       1.89860000
H        3.03380000      -0.76390000       0.88680000
H        2.20740000      -2.30130000       0.76150000
H        2.64000000      -1.35890000      -1.69170000
H        0.46880000      -0.07250000      -2.22700000
