19
Properties=species:S:1:pos:R:3 gdb_111880=T pbc="F F F"
C        0.36050000       1.14700000       0.26540000
O       -0.35510000       0.12650000      -0.41660000
C        0.41920000      -0.53550000      -1.35420000
C        1.39110000      -1.61880000      -0.87280000
O        1.44090000      -1.85050000       0.50470000
C        0.64990000      -2.96800000       0.90110000
C       -0.79330000      -2.77450000       0.46980000
O       -0.90250000      -2.68440000      -0.95030000
C        0.11790000      -1.99430000      -1.60070000
H        1.20180000       0.72950000       0.83010000
H        0.73740000       1.90460000      -0.43740000
H       -0.34320000       1.62250000       0.95260000
H        0.72900000       0.06820000      -2.21050000
H        2.35360000      -1.73820000      -1.36780000
H        1.05500000      -3.89570000       0.46950000
H        0.72150000      -3.02520000       1.99070000
H       -1.40200000      -3.63530000       0.76400000
H       -1.19720000      -1.86860000       0.93590000
H        0.20270000      -2.34310000      -2.62530000
