22
Properties=species:S:1:pos:R:3 gdb_83288=T pbc="F F F"
C       -0.49210000       1.30680000      -0.28890000
N       -0.00200000      -0.03800000      -0.05300000
C        1.38710000      -0.41550000      -0.26560000
C        2.50770000       0.54670000      -0.64680000
C        2.83980000       1.63530000       0.39280000
C        2.73180000       1.11170000       1.82620000
O        3.03750000       2.11710000       2.78480000
C        1.30860000       0.63700000       2.12570000
C        0.80290000      -0.39160000       1.11830000
H       -0.66700000       1.43030000      -1.36280000
H       -1.45600000       1.42240000       0.21830000
H        0.15830000       2.12860000       0.04140000
H        1.48350000      -1.38170000      -0.76120000
H        3.40080000      -0.07200000      -0.80020000
H        2.29710000       1.00720000      -1.62020000
H        3.85730000       2.00500000       0.20960000
H        2.17750000       2.50250000       0.29690000
H        3.41750000       0.25440000       1.94320000
H        3.92460000       2.44320000       2.60250000
H        1.28350000       0.20450000       3.12970000
H        0.65920000       1.52020000       2.15730000
H        0.49910000      -1.33870000       1.56040000
