14
Properties=species:S:1:pos:R:3 gdb_75228=T pbc="F F F"
N        0.01120000       1.34030000       0.06960000
C       -0.02000000      -0.02500000      -0.00950000
N       -1.08810000      -0.72440000      -0.12210000
C       -0.75660000      -2.14280000       0.00460000
C        0.77150000      -2.22470000       0.09320000
O        1.43340000      -1.66710000      -1.04860000
C        1.25100000      -0.82650000       0.09990000
C        1.43790000      -3.31160000       0.76230000
N        1.92850000      -4.20550000       1.30670000
H        0.82720000       1.80690000      -0.29470000
H       -0.86380000       1.79790000      -0.14370000
H       -1.21410000      -2.56660000       0.90670000
H       -1.13290000      -2.70800000      -0.85480000
H        2.15310000      -0.48160000       0.59640000
