19
Properties=species:S:1:pos:R:3 gdb_91608=T pbc="F F F"
C       -0.16760000       1.45900000      -0.00110000
N        0.08960000       0.02880000      -0.00650000
C        0.83040000      -0.49150000      -1.17730000
C        1.87510000      -1.41830000      -0.51280000
C        1.07360000      -1.94840000       0.69690000
C        0.77350000      -0.52870000       1.18770000
C        2.18380000       0.10080000       1.21110000
O        2.59880000       1.04010000       1.85090000
N        2.84820000      -0.57400000       0.19400000
H        0.74360000       2.08110000      -0.01070000
H       -0.77130000       1.71910000      -0.87640000
H       -0.74240000       1.72190000       0.89220000
H        0.16510000      -1.03170000      -1.86270000
H        1.32890000       0.30720000      -1.74410000
H        2.35110000      -2.14990000      -1.16490000
H        0.17090000      -2.49470000       0.41840000
H        1.69020000      -2.53310000       1.38090000
H        0.19380000      -0.38590000       2.09770000
H        3.59140000      -0.09730000      -0.29760000
