18
Properties=species:S:1:pos:R:3 gdb_26129=T pbc="F F F"
C        0.48630000       1.01590000      -0.64370000
C        0.02050000      -0.04610000       0.35270000
O        0.09550000       0.43540000       1.70590000
C       -1.34880000      -0.57980000       0.06930000
C       -2.31070000      -0.40940000      -0.90850000
N       -2.31530000       0.42660000      -2.03240000
N       -3.42670000      -1.16300000      -0.63410000
C       -3.16280000      -1.78550000       0.49620000
N       -1.92710000      -1.48760000       0.95390000
H        1.43830000       1.42980000      -0.30280000
H        0.64130000       0.58600000      -1.63950000
H       -0.24260000       1.82750000      -0.73010000
H        0.75170000      -0.86690000       0.34940000
H       -0.58230000       1.11630000       1.79640000
H       -1.44700000       0.42510000      -2.54980000
H       -3.08260000       0.17010000      -2.64120000
H       -3.83180000      -2.45580000       1.01480000
H       -1.51220000      -1.76450000       1.82810000
