21
Properties=species:S:1:pos:R:3 gdb_92617=T pbc="F F F"
O        0.16390000       1.40530000       0.17000000
C        0.08310000      -0.00800000       0.04650000
C       -1.37430000      -0.56000000       0.00860000
C       -1.29390000      -1.80400000      -0.89490000
C       -2.35550000      -2.12540000      -1.96110000
C       -1.55550000      -2.94450000      -3.00570000
C       -0.11760000      -2.33520000      -3.01320000
C       -0.06520000      -1.53420000      -1.73850000
C        0.68610000      -0.55740000      -1.23540000
H       -0.22780000       1.78190000      -0.62640000
H        0.61820000      -0.37740000       0.93180000
H       -1.78180000      -0.75040000       1.00460000
H       -2.00620000       0.20250000      -0.46540000
H       -1.13280000      -2.70490000      -0.28220000
H       -3.22550000      -2.66790000      -1.58020000
H       -2.71710000      -1.19100000      -2.40910000
H       -1.50930000      -3.99210000      -2.68820000
H       -2.01980000      -2.93360000      -3.99520000
H        0.64930000      -3.11650000      -3.05560000
H        0.04860000      -1.69240000      -3.88460000
H        1.60850000      -0.15950000      -1.64460000
