10
Properties=species:S:1:pos:R:3 gdb_133453=T pbc="F F F"
F        0.05800000       0.11710000       0.25080000
C        0.02850000       1.42370000       0.06320000
N       -1.12150000       1.97200000       0.00590000
O       -1.17040000       3.33380000      -0.18930000
N       -0.03260000       4.10490000      -0.32180000
C        1.10300000       3.52110000      -0.25910000
F        2.16320000       4.28150000      -0.38860000
C        1.32170000       2.09160000      -0.05740000
N        2.48400000       1.56890000      -0.00400000
H        2.41110000       0.55940000       0.14280000
