16
Properties=species:S:1:pos:R:3 gdb_28207=T pbc="F F F"
C        0.13800000       1.46610000       0.07760000
C       -0.04820000      -0.00870000      -0.04980000
C       -0.06970000      -0.81300000      -1.18130000
C       -0.06900000      -2.14520000      -0.70240000
C       -0.06360000      -2.11510000       0.65070000
N       -0.10020000      -0.82550000       1.08440000
O       -0.37390000      -3.32620000       1.21310000
C       -0.15420000      -4.19100000       0.06980000
O       -0.35950000      -3.43640000      -1.12610000
H        1.14600000       1.74370000       0.41550000
H       -0.02090000       1.94120000      -0.89360000
H       -0.57610000       1.91000000       0.78260000
H       -0.05620000      -0.45710000      -2.19910000
H        0.03950000      -0.50360000       2.02690000
H        0.89050000      -4.54010000       0.10560000
H       -0.86220000      -5.01960000       0.11100000
