17
Properties=species:S:1:pos:R:3 gdb_35068=T pbc="F F F"
C       -0.07570000      -1.22450000       0.12690000
C       -0.05890000      -0.02420000       0.05660000
C       -0.02480000       1.43110000      -0.01890000
C       -0.56490000       2.06170000       1.28100000
C        0.22930000       3.08590000       1.64400000
C        1.35260000       2.75970000       2.63710000
C        2.15460000       2.53550000       1.29920000
C        1.39010000       2.07120000      -0.00460000
C        1.23460000       3.44420000       0.53350000
H       -0.09070000      -2.28480000       0.17870000
H       -0.53170000       1.74530000      -0.94390000
H       -1.06720000       1.42160000       1.99950000
H        1.80100000       3.60320000       3.17440000
H        1.18230000       1.92120000       3.31770000
H        3.24130000       2.53780000       1.25460000
H        2.06290000       1.87030000      -0.83610000
H        1.41160000       4.40350000       0.06570000
