17
Properties=species:S:1:pos:R:3 gdb_65594=T pbc="F F F"
O       -0.09530000       1.35350000       0.04120000
C        0.01190000      -0.05520000       0.01500000
C        0.66920000      -0.68330000       1.28770000
C       -0.03580000      -2.02140000       1.46240000
N       -1.34640000      -1.89330000       2.12990000
C       -1.29080000      -2.01140000       0.65910000
C       -1.41530000      -0.67040000      -0.04890000
C        0.78610000      -0.47500000      -1.17800000
N        1.41480000      -0.78480000      -2.09750000
H        0.78950000       1.73400000       0.00240000
H        1.75130000      -0.78620000       1.17760000
H        0.45910000      -0.02090000       2.13190000
H        0.54470000      -2.92570000       1.60660000
H       -1.60980000      -2.79110000       2.53060000
H       -1.67530000      -2.90900000       0.18780000
H       -2.08720000       0.00010000       0.49300000
H       -1.76690000      -0.76120000      -1.07790000
