13
Properties=species:S:1:pos:R:3 gdb_5418=T pbc="F F F"
N       -0.10130000       1.31300000       0.01110000
C        0.01540000       0.04320000       0.00340000
N        1.11510000      -0.80350000      -0.00800000
C        0.71560000      -2.14410000      -0.01220000
C       -0.62370000      -2.18090000      -0.00430000
N       -1.08120000      -0.85020000       0.00530000
C       -2.41270000      -0.46470000       0.01520000
O       -3.32440000      -1.25650000       0.01630000
H        0.80320000       1.77630000       0.00800000
H        2.06240000      -0.47240000      -0.01030000
H        1.43320000      -2.94650000      -0.02080000
H       -1.32690000      -2.99330000      -0.00440000
H       -2.51550000       0.62980000       0.02130000
