21
Properties=species:S:1:pos:R:3 gdb_114555=T pbc="F F F"
C       -0.10460000       1.25330000      -0.01580000
O        0.26660000      -0.10350000      -0.10710000
C        0.77990000      -0.64400000       1.09710000
C       -0.27630000      -1.04180000       2.17550000
C       -0.01020000      -2.56340000       2.20850000
C        0.05840000      -2.91050000       0.69640000
C        1.35290000      -2.03530000       0.78240000
O        2.37510000      -2.07660000      -0.15590000
C        1.54870000      -2.62340000       2.19950000
H        0.74430000       1.88590000       0.28690000
H       -0.44420000       1.56640000      -1.00620000
H       -0.92250000       1.40900000       0.70290000
H        1.55780000       0.02700000       1.49180000
H       -0.10270000      -0.55780000       3.14090000
H       -1.29070000      -0.80130000       1.84290000
H       -0.59540000      -3.16060000       2.90560000
H        0.30070000      -3.95870000       0.51110000
H       -0.75200000      -2.57330000       0.04640000
H        2.11950000      -1.46780000      -0.86060000
H        2.10120000      -2.03090000       2.93550000
H        1.93260000      -3.64490000       2.16590000
