19
Properties=species:S:1:pos:R:3 gdb_63593=T pbc="F F F"
C       -0.09960000       1.52700000      -0.09800000
C       -0.00330000       0.01680000      -0.03190000
C       -1.23820000      -0.71760000      -0.51660000
C        1.33300000      -0.62660000      -0.25970000
C        0.74080000      -0.62220000       1.15010000
C        1.33210000       0.16350000       2.18340000
C        1.82540000       0.81780000       3.07750000
C        2.38480000       1.55680000       4.07170000
C        2.88150000       2.21340000       4.95630000
H        0.79880000       2.00780000       0.29620000
H       -0.23650000       1.85480000      -1.13480000
H       -0.95390000       1.89100000       0.48350000
H       -1.44100000      -0.47960000      -1.56740000
H       -1.12030000      -1.80290000      -0.43820000
H       -2.12130000      -0.43130000       0.06560000
H        1.37670000      -1.58400000      -0.76810000
H        2.19020000       0.01550000      -0.42770000
H        0.33380000      -1.57220000       1.48730000
H        3.31970000       2.79000000       5.73220000
