24
Properties=species:S:1:pos:R:3 gdb_117080=T pbc="F F F"
C        0.45740000       0.61990000       0.85000000
C       -0.14560000       0.59620000      -0.55720000
N        0.66930000      -0.13360000      -1.51820000
C        0.48450000      -1.46250000      -1.75840000
O       -0.40610000      -2.09820000      -1.21460000
C        1.43250000      -2.14760000      -2.77130000
C        2.07780000      -3.34320000      -2.04110000
C        0.54620000      -2.66660000      -3.92310000
C        2.53010000      -1.23100000      -3.33560000
H        0.55940000      -0.39850000       1.23430000
H        1.44630000       1.09090000       0.85210000
H       -0.18670000       1.18300000       1.53310000
H       -1.12070000       0.10480000      -0.53710000
H       -0.28650000       1.61610000      -0.93170000
H        1.45370000       0.33780000      -1.93310000
H        1.30480000      -3.97510000      -1.59960000
H        2.67070000      -3.94180000      -2.74060000
H        2.74220000      -3.00630000      -1.23770000
H        0.09460000      -1.83890000      -4.48100000
H        1.14240000      -3.26070000      -4.62380000
H       -0.25860000      -3.28910000      -3.52680000
H        3.19530000      -0.85390000      -2.55010000
H        3.15400000      -1.78980000      -4.04060000
H        2.11320000      -0.37880000      -3.88410000
