18
Properties=species:S:1:pos:R:3 gdb_61083=T pbc="F F F"
C        0.08380000       1.22790000      -0.22070000
C        0.08130000      -0.29240000      -0.02400000
C        0.84710000      -0.69410000       1.23470000
O        1.82870000      -0.12840000       1.64010000
N       -1.27320000      -0.83010000       0.08260000
C       -1.86120000      -1.19720000      -0.95860000
C       -3.21700000      -1.78710000      -1.28180000
C       -2.68830000      -1.77580000      -2.73090000
O       -1.42830000      -1.19150000      -2.27390000
H        1.10410000       1.60710000      -0.13120000
H       -0.31350000       1.48440000      -1.20560000
H       -0.53470000       1.70800000       0.54290000
H        0.62830000      -0.75520000      -0.86300000
H        0.42480000      -1.58460000       1.75130000
H       -3.40650000      -2.76840000      -0.84410000
H       -4.06180000      -1.12790000      -1.07630000
H       -2.52010000      -2.75100000      -3.19320000
H       -3.19540000      -1.10630000      -3.42910000
