16
Properties=species:S:1:pos:R:3 gdb_125604=T pbc="F F F"
C        0.01330000       1.47780000      -0.08180000
C        0.00780000      -0.01290000       0.03080000
N       -0.02460000      -0.78200000      -1.06020000
N       -0.01970000      -2.03880000      -0.60840000
C        0.01510000      -2.10280000       0.75550000
C        0.02660000      -3.32700000       1.46100000
N        0.03600000      -4.33060000       2.04030000
C        0.03410000      -0.79250000       1.21470000
C        0.07350000      -0.32210000       2.63260000
H        0.91220000       1.90990000       0.37220000
H       -0.01760000       1.77120000      -1.13270000
H       -0.85010000       1.92050000       0.42720000
H       -0.04150000      -2.80740000      -1.25790000
H        0.96330000       0.28770000       2.82610000
H       -0.79800000       0.29760000       2.87170000
H        0.08680000      -1.16450000       3.32840000
