23
Properties=species:S:1:pos:R:3 gdb_122999=T pbc="F F F"
C        0.03420000       1.54220000       0.09760000
C        0.18370000       0.03540000      -0.03090000
O        0.64300000      -0.47950000       1.20010000
C        0.81560000      -1.88080000       1.18870000
C        1.27410000      -2.31490000       2.57760000
C        1.52270000      -3.80180000       2.67300000
O        0.32250000      -4.49620000       2.42810000
C        2.83000000      -4.38240000       2.19890000
C        2.49710000      -4.33920000       3.68470000
H        0.99390000       2.00270000       0.34930000
H       -0.32220000       1.97310000      -0.84300000
H       -0.68110000       1.79040000       0.88700000
H       -0.78100000      -0.42740000      -0.30170000
H        0.89400000      -0.21440000      -0.83830000
H       -0.12440000      -2.38890000       0.92550000
H        1.56500000      -2.17060000       0.43170000
H        2.19030000      -1.77420000       2.83560000
H        0.51080000      -2.02760000       3.30970000
H        0.50820000      -5.43960000       2.40160000
H        2.80830000      -5.35040000       1.70670000
H        3.59600000      -3.71430000       1.81930000
H        3.03720000      -3.64430000       4.31900000
H        2.24730000      -5.27830000       4.16910000
