12
Properties=species:S:1:pos:R:3 gdb_130826=T pbc="F F F"
O       -0.08560000       0.02020000       0.00160000
C       -0.03790000       1.21910000       0.00840000
C        1.32100000       1.96230000      -0.00120000
O        2.36190000       1.34720000      -0.01600000
C        1.28430000       3.43390000       0.00850000
N        0.14430000       4.14480000       0.02510000
N        0.56880000       5.38960000       0.02830000
N        1.88880000       5.57790000       0.01570000
C        2.36740000       4.33970000       0.00290000
H       -0.94280000       1.85670000       0.02160000
H       -0.07300000       6.16800000       0.03990000
H        3.42550000       4.13800000      -0.00940000
