16
Properties=species:S:1:pos:R:3 gdb_128274=T pbc="F F F"
C       -0.08910000       1.41780000       0.07640000
N        0.10110000      -0.02110000       0.01580000
C        0.65640000      -0.72600000       1.02120000
N        0.68810000      -2.02850000       1.14680000
C        1.40240000      -2.15570000       2.30360000
O        1.65970000      -3.36690000       2.77990000
C        2.41110000      -3.40490000       3.99640000
N        1.79780000      -1.04610000       2.88660000
O        1.27580000      -0.05280000       1.99800000
H        0.83550000       1.89610000       0.40560000
H       -0.32860000       1.78100000      -0.92460000
H       -0.89360000       1.71200000       0.76280000
H       -0.48240000      -0.56450000      -0.59880000
H        3.38930000      -2.93350000       3.86120000
H        1.87630000      -2.88560000       4.79730000
H        2.52810000      -4.46100000       4.23940000
