19
Properties=species:S:1:pos:R:3 gdb_117864=T pbc="F F F"
C        0.02990000       1.57630000       0.02680000
C        0.01400000       0.04580000       0.02160000
C       -1.40340000      -0.53220000      -0.02550000
C       -1.41930000      -2.07350000       0.03020000
O       -0.78450000      -2.57810000       1.20360000
C       -2.78020000      -2.59580000      -0.10930000
C       -3.91660000      -3.00680000      -0.18780000
C       -5.19150000      -3.47270000      -0.28020000
C       -6.32350000      -3.88520000      -0.36150000
H        1.05380000       1.96120000       0.05920000
H       -0.45100000       1.98400000      -0.86940000
H       -0.50300000       1.97570000       0.89700000
H        0.58190000      -0.32570000      -0.84180000
H        0.52320000      -0.34080000       0.91040000
H       -1.99930000      -0.14950000       0.81430000
H       -1.91820000      -0.21240000      -0.93980000
H       -0.80810000      -2.45800000      -0.79700000
H       -1.36800000      -2.39640000       1.94940000
H       -7.31810000      -4.24950000      -0.43430000
