23
Properties=species:S:1:pos:R:3 gdb_118002=T pbc="F F F"
C       -0.15700000       1.58640000       0.02350000
C       -0.06930000       0.05850000       0.00010000
C        0.73540000      -0.47580000      -1.19060000
C        0.78240000      -2.00880000      -1.24580000
O       -0.52710000      -2.56210000      -1.24620000
C        1.60900000      -2.55010000      -2.44630000
C        3.08150000      -2.08670000      -2.43150000
C        1.54360000      -4.01030000      -2.49900000
C        1.53760000      -5.21150000      -2.54110000
H        0.83720000       2.04400000       0.08170000
H       -0.64260000       1.97050000      -0.88090000
H       -0.73470000       1.93780000       0.88410000
H        0.39160000      -0.29810000       0.93070000
H       -1.07270000      -0.37790000      -0.02580000
H        0.29900000      -0.10110000      -2.13010000
H        1.75480000      -0.07540000      -1.14660000
H        1.23920000      -2.38990000      -0.32370000
H       -0.95770000      -2.30440000      -2.06930000
H        1.13890000      -2.15470000      -3.36100000
H        3.63340000      -2.56150000      -3.24600000
H        3.16060000      -1.00390000      -2.55220000
H        3.56450000      -2.36920000      -1.49070000
H        1.51060000      -6.27230000      -2.57550000
