17
Properties=species:S:1:pos:R:3 gdb_79064=T pbc="F F F"
C       -0.00260000       1.56240000       0.04930000
C        0.02500000       0.05520000       0.07090000
N       -1.30570000      -0.57560000      -0.08340000
C       -1.17480000      -1.74070000       0.41300000
N        0.06440000      -2.06120000       1.05080000
C        1.27080000      -1.71840000       0.19710000
C        0.73490000      -0.75790000       1.19770000
C        0.96360000      -0.73530000      -0.93580000
O        0.48640000      -1.15550000      -2.17660000
H        1.00320000       1.97400000       0.17870000
H       -0.40260000       1.92220000      -0.90290000
H       -0.64020000       1.94950000       0.85060000
H       -1.94810000      -2.50260000       0.38650000
H        2.08970000      -2.42440000       0.25860000
H        1.11190000      -0.44110000       2.16330000
H        1.86430000      -0.13990000      -1.11450000
H       -0.44370000      -1.38800000      -2.06550000
