18
Properties=species:S:1:pos:R:3 gdb_19251=T pbc="F F F"
C       -0.21840000       1.51840000       0.15100000
C        0.08180000       0.02830000       0.04160000
C        0.69810000      -0.52210000      -1.25360000
C        2.12970000      -0.09640000      -1.41620000
C        1.80920000      -1.22230000      -0.47290000
C        1.24560000      -0.65670000       0.85900000
C        2.26600000       0.12570000       1.63730000
O        2.48220000       1.30940000       1.53750000
H        0.65210000       2.13260000      -0.08050000
H       -1.02730000       1.78210000      -0.54030000
H       -0.54480000       1.78200000       1.16240000
H       -0.83080000      -0.53340000       0.26690000
H        0.12640000      -0.90900000      -2.08890000
H        2.59620000      -0.40340000      -2.34680000
H        2.48130000       0.85750000      -1.03420000
H        2.21160000      -2.22010000      -0.59310000
H        0.86750000      -1.46170000       1.49690000
H        2.89080000      -0.50370000       2.31560000
