18
Properties=species:S:1:pos:R:3 gdb_126393=T pbc="F F F"
C        0.00250000       1.51330000      -0.21380000
C       -0.10180000       0.03940000       0.20800000
C       -1.49990000      -0.48410000       0.13900000
N       -2.15110000      -0.91760000       1.20350000
N       -3.36900000      -1.28590000       0.68590000
C       -4.41530000      -1.83070000       1.51920000
C       -3.35830000      -1.04770000      -0.63610000
O       -4.42780000      -1.31830000      -1.39620000
N       -2.21180000      -0.54460000      -1.03430000
H        1.04310000       1.85050000      -0.18800000
H       -0.37940000       1.65100000      -1.22900000
H       -0.57950000       2.15400000       0.45610000
H        0.53480000      -0.56860000      -0.44620000
H        0.25970000      -0.09590000       1.23120000
H       -4.69060000      -1.11360000       2.29720000
H       -5.28330000      -2.03840000       0.89250000
H       -4.07870000      -2.75650000       1.99360000
H       -4.19240000      -1.06980000      -2.29890000
