15
Properties=species:S:1:pos:R:3 gdb_54564=T pbc="F F F"
N       -0.00610000       1.09990000      -0.66290000
C        0.01550000      -0.01350000       0.12240000
O        0.97720000      -0.39430000       0.75780000
C       -1.30260000      -0.73910000       0.12370000
N       -2.60540000      -0.10960000      -0.27880000
C       -2.99240000      -1.52300000       0.04120000
C       -1.68760000      -2.09460000      -0.57830000
O       -1.35690000      -2.92660000       0.55860000
C       -1.91860000      -1.73070000       1.16710000
H        0.85120000       1.60810000      -0.80700000
H       -0.81090000       1.29940000      -1.23460000
H       -2.93060000       0.51920000       0.46000000
H       -4.01060000      -1.90530000      -0.02490000
H       -1.46870000      -2.44290000      -1.58610000
H       -1.97990000      -1.66500000       2.25340000
