19
Properties=species:S:1:pos:R:3 gdb_102786=T pbc="F F F"
C       -0.03460000       1.57320000       0.05770000
C        0.01610000       0.04350000       0.04310000
N       -1.30620000      -0.58010000      -0.03940000
C       -1.96240000      -0.69010000      -1.33590000
C       -1.95750000      -2.15920000      -1.74070000
O       -2.90390000      -2.89350000      -1.58580000
C       -1.99900000      -0.78030000       1.15030000
N       -3.27030000      -1.30470000       1.02040000
O       -1.52140000      -0.47040000       2.22880000
H        0.97860000       1.98590000       0.09830000
H       -0.52270000       1.97140000      -0.83860000
H       -0.58440000       1.91760000       0.93670000
H        0.61180000      -0.31660000      -0.80280000
H        0.48310000      -0.31920000       0.95960000
H       -2.99350000      -0.32540000      -1.29580000
H       -1.40720000      -0.09470000      -2.06640000
H       -0.98750000      -2.54840000      -2.11760000
H       -3.49180000      -1.92380000       0.25200000
H       -3.66590000      -1.56380000       1.91050000
