17
Properties=species:S:1:pos:R:3 gdb_37795=T pbc="F F F"
C        0.26030000       1.33030000       0.64610000
C        1.10560000       2.31960000      -0.10680000
C        1.46680000       2.27860000      -1.39210000
C        1.13060000       1.25410000      -2.40440000
C       -0.21780000       0.52420000      -2.44000000
O       -1.01420000       0.59750000      -1.29200000
C       -0.22420000       0.15240000      -0.19210000
O        0.87460000      -0.58380000      -0.72360000
C        1.00050000      -0.23780000      -2.07340000
H        0.81910000       0.92920000       1.50360000
H       -0.62210000       1.83060000       1.06980000
H        1.45490000       3.16280000       0.48510000
H        2.08650000       3.09020000      -1.76450000
H        1.54200000       1.43580000      -3.39360000
H       -0.79160000       0.41800000      -3.35220000
H       -0.83290000      -0.52890000       0.41470000
H        1.48200000      -1.00410000      -2.66800000
