17
Properties=species:S:1:pos:R:3 gdb_126643=T pbc="F F F"
C        0.07230000       1.52340000      -0.15730000
C       -0.87960000       0.74360000       0.75210000
C       -1.20530000      -0.64680000       0.20180000
N       -2.16560000      -1.32330000       1.06800000
C       -2.06290000      -2.54610000       1.27170000
O       -2.92790000      -3.25300000       2.09360000
C       -2.47330000      -4.51870000       2.06480000
N       -1.44590000      -4.73150000       1.33830000
O       -1.15100000      -3.45250000       0.78960000
H        0.29060000       2.51280000       0.25520000
H        1.02590000       0.99830000      -0.28250000
H       -0.35840000       1.66710000      -1.15470000
H       -0.44210000       0.63420000       1.75160000
H       -1.81830000       1.29310000       0.88530000
H       -1.65660000      -0.54310000      -0.79480000
H       -0.28010000      -1.22570000       0.07200000
H       -2.99100000      -5.26660000       2.64460000
