15
Properties=species:S:1:pos:R:3 gdb_25678=T pbc="F F F"
C       -0.00880000       1.46650000       0.01050000
C        0.00730000       0.01380000       0.00270000
C        0.03410000      -1.19190000      -0.00380000
C        0.03710000      -2.61810000      -0.01140000
N        1.22610000      -3.25150000      -0.02160000
C        1.18470000      -4.58110000      -0.02850000
N        0.10420000      -5.36610000      -0.02640000
C       -1.06770000      -4.72350000      -0.01620000
C       -1.16330000      -3.34050000      -0.00830000
H        1.00760000       1.87340000       0.00310000
H       -0.53540000       1.85900000      -0.86640000
H       -0.51860000       1.84960000       0.90140000
H        2.14730000      -5.08800000      -0.03670000
H       -1.96220000      -5.34240000      -0.01430000
H       -2.11980000      -2.83310000      -0.00010000
