21
Properties=species:S:1:pos:R:3 gdb_102605=T pbc="F F F"
C       -2.26850000       1.05150000       1.59900000
C       -1.77840000      -0.37910000       1.46580000
O       -1.74600000      -1.13190000       2.41460000
C       -1.31900000      -0.80390000       0.07710000
C       -0.98420000      -2.29190000      -0.05470000
C       -2.25150000      -3.15710000      -0.11700000
O       -1.97260000      -4.54980000      -0.08820000
C       -0.08510000      -2.55210000      -1.27030000
O        1.14480000      -1.83890000      -1.21440000
H       -2.46570000       1.28210000       2.64660000
H       -1.53320000       1.75390000       1.19200000
H       -3.18860000       1.18520000       1.01810000
H       -2.07720000      -0.49610000      -0.65720000
H       -0.42470000      -0.21510000      -0.16870000
H       -0.43630000      -2.58550000       0.85250000
H       -2.93210000      -2.87220000       0.69620000
H       -2.77630000      -2.98010000      -1.06460000
H       -1.67380000      -4.76580000       0.80100000
H        0.07660000      -3.63220000      -1.37520000
H       -0.58290000      -2.20480000      -2.18390000
H        1.66850000      -2.21530000      -0.49970000
