15
Properties=species:S:1:pos:R:3 gdb_131612=T pbc="F F F"
O       -0.03000000       0.49510000       1.17590000
C       -0.13820000       0.29400000      -0.20920000
C       -1.42240000      -0.46980000      -0.60580000
O       -1.64970000      -0.47180000      -1.99600000
C       -1.39900000      -1.86430000      -0.03100000
N       -0.88880000      -2.24140000       1.10930000
C       -1.13550000      -3.59150000       1.10140000
N       -1.74660000      -4.03440000       0.03940000
O       -1.92630000      -2.87230000      -0.72770000
H       -0.02740000      -0.38000000       1.59120000
H       -0.18820000       1.27720000      -0.68540000
H        0.73420000      -0.23750000      -0.62880000
H       -2.27250000       0.06120000      -0.16070000
H       -0.94370000      -0.96690000      -2.42700000
H       -0.85010000      -4.25520000       1.90440000
