21
Properties=species:S:1:pos:R:3 gdb_111417=T pbc="F F F"
C       -0.10840000       1.34970000       0.01950000
O        0.27180000      -0.00970000       0.14350000
C        0.69820000      -0.58970000      -1.06170000
C        1.36980000      -1.94480000      -0.88990000
C        0.39790000      -2.95250000      -0.34560000
C        0.32610000      -2.59720000      -1.80530000
C       -0.37860000      -1.25370000      -2.01980000
C       -1.85380000      -1.15920000      -1.67760000
O       -2.33090000       0.11000000      -2.12270000
H        0.73550000       1.96810000      -0.32460000
H       -0.94550000       1.47290000      -0.67810000
H       -0.40710000       1.69010000       1.01450000
H        1.32720000       0.11630000      -1.62100000
H        2.44010000      -2.10490000      -0.85340000
H        0.82800000      -3.92630000      -0.13430000
H       -0.37250000      -2.64770000       0.35470000
H        0.49030000      -3.33730000      -2.57900000
H       -0.24400000      -0.88920000      -3.04250000
H       -2.39350000      -1.97690000      -2.18210000
H       -2.00430000      -1.27390000      -0.59610000
H       -3.23800000       0.21090000      -1.81940000
