15
Properties=species:S:1:pos:R:3 gdb_42997=T pbc="F F F"
O       -0.07730000       0.23070000      -0.89770000
C       -0.08060000       1.27350000      -0.30500000
C       -1.22600000       2.03690000       0.24200000
C       -1.05550000       2.49900000       1.69960000
C       -0.67410000       3.41470000       0.60000000
N        0.75030000       3.50280000       0.29540000
C        1.21190000       2.15200000      -0.05950000
C        2.05080000       1.55160000       0.98430000
N        2.69240000       1.06530000       1.81340000
H       -2.21570000       1.83750000      -0.14590000
H       -1.98510000       2.69440000       2.22100000
H       -0.28140000       2.04440000       2.30810000
H       -1.23950000       4.31960000       0.41680000
H        0.88480000       4.11510000      -0.50010000
H        1.78340000       2.15620000      -0.99170000
