22
Properties=species:S:1:pos:R:3 gdb_58315=T pbc="F F F"
C       -0.03680000       1.56130000      -0.06280000
C        0.02500000       0.02950000       0.02490000
C        0.86330000      -0.40770000       1.23560000
C       -1.39760000      -0.56840000       0.03740000
O       -2.15820000      -0.12060000      -1.08600000
C       -1.42520000      -2.10190000       0.11930000
C       -2.86960000      -2.63990000       0.09800000
C       -2.92430000      -4.09890000       0.09580000
N       -2.94800000      -5.25440000       0.09240000
H        0.96540000       1.98360000      -0.18490000
H       -0.65730000       1.88660000      -0.90010000
H       -0.46630000       1.98350000       0.85360000
H        0.52030000      -0.34780000      -0.88490000
H        0.35760000      -0.15370000       2.17500000
H        1.06750000      -1.48140000       1.24150000
H        1.82790000       0.10890000       1.23410000
H       -1.93560000      -0.16070000       0.90500000
H       -1.66860000      -0.35580000      -1.88310000
H       -0.86700000      -2.52530000      -0.72600000
H       -0.92620000      -2.44370000       1.02990000
H       -3.42260000      -2.27120000       0.97010000
H       -3.38910000      -2.25600000      -0.78480000
