15
Properties=species:S:1:pos:R:3 gdb_11017=T pbc="F F F"
O       -0.24250000       1.38940000       0.09270000
C       -0.09540000       0.00930000       0.04810000
C       -0.36160000      -0.77200000      -1.19930000
C       -1.29320000      -0.90360000       0.00470000
C       -0.99180000      -2.02850000       0.92390000
N       -1.78750000      -2.94140000       1.27830000
O        0.31770000      -1.93190000       1.34160000
C        0.85540000      -0.63410000       1.05030000
H        0.40540000       1.78340000      -0.50110000
H       -0.77640000      -0.22010000      -2.03550000
H        0.28060000      -1.60640000      -1.46360000
H       -2.30890000      -0.54380000      -0.07410000
H       -1.33570000      -3.56570000       1.94890000
H        1.87650000      -0.76850000       0.67790000
H        0.88260000      -0.02840000       1.96410000
