20
Properties=species:S:1:pos:R:3 gdb_87634=T pbc="F F F"
C       -0.44650000       1.35920000      -0.01240000
C        0.06040000      -0.07820000      -0.05520000
C        1.37070000      -0.32560000      -0.83430000
O        1.76370000       0.04980000      -1.90070000
C        1.99480000      -1.13130000       0.31660000
C        0.77540000      -0.72410000       1.16140000
C        0.74670000      -0.25530000       2.56910000
N        0.20680000      -1.56480000       2.19610000
C       -1.24090000      -1.71290000       2.23620000
H        0.30360000       2.02860000       0.41990000
H       -0.66360000       1.70780000      -1.02680000
H       -1.36180000       1.44730000       0.58120000
H       -0.72130000      -0.74520000      -0.44550000
H        2.04840000      -2.20630000       0.11290000
H        2.97880000      -0.78780000       0.64830000
H        1.64950000      -0.26870000       3.17510000
H        0.03940000       0.53430000       2.82310000
H       -1.79230000      -0.79920000       1.95940000
H       -1.54420000      -2.51550000       1.55600000
H       -1.54130000      -1.99780000       3.24910000
