14
Properties=species:S:1:pos:R:3 gdb_4301=T pbc="F F F"
C       -0.02470000       1.53040000       0.03480000
C        0.00260000       0.02870000      -0.00650000
C       -0.02830000      -0.66530000      -1.17510000
C       -0.00230000      -2.11080000      -1.22940000
O       -0.02550000      -2.81460000      -2.20190000
O        0.05780000      -2.75170000       0.03110000
C        0.08760000      -2.05440000       1.17360000
C        0.06350000      -0.70890000       1.22610000
H        0.86870000       1.91870000       0.53720000
H       -0.07300000       1.96060000      -0.96750000
H       -0.88950000       1.88500000       0.60740000
H       -0.07440000      -0.16800000      -2.13640000
H        0.13300000      -2.70280000       2.04150000
H        0.09000000      -0.20510000       2.18360000
