20
Properties=species:S:1:pos:R:3 gdb_110398=T pbc="F F F"
C        0.05690000       1.35720000      -0.37190000
O       -0.04720000       0.15980000       0.36590000
C       -1.29890000      -0.46170000       0.24350000
C       -1.55730000      -1.35320000      -0.98910000
C       -0.67770000      -2.50840000      -0.41500000
C       -1.35900000      -1.86160000       0.85460000
C       -2.47380000      -2.30710000      -0.16580000
N       -1.75270000      -3.51420000      -0.67560000
C       -1.76150000      -4.67950000       0.20250000
H        1.04780000       1.77460000      -0.17770000
H       -0.04950000       1.18690000      -1.45370000
H       -0.70370000       2.09150000      -0.06300000
H       -2.10930000       0.23340000       0.51440000
H       -1.68320000      -1.10890000      -2.04290000
H        0.38010000      -2.70300000      -0.58860000
H       -1.24450000      -2.13830000       1.90140000
H       -3.55740000      -2.26010000      -0.04580000
H       -2.72770000      -5.18790000       0.11620000
H       -0.98700000      -5.38090000      -0.12570000
H       -1.58800000      -4.45100000       1.26750000
