14
Properties=species:S:1:pos:R:3 gdb_129475=T pbc="F F F"
N        0.21430000       1.17220000      -0.31820000
C       -0.06810000       0.01970000       0.34500000
O        0.51480000      -0.32410000       1.35440000
C       -1.22890000      -0.79390000      -0.24400000
C       -0.99500000      -2.26720000      -0.15060000
N       -1.21460000      -3.06230000      -1.16410000
O       -0.91630000      -4.32100000      -0.72630000
N       -0.50300000      -4.30820000       0.57800000
C       -0.54440000      -3.05940000       0.94670000
H        0.96790000       1.74540000       0.02590000
H       -0.20720000       1.40690000      -1.19930000
H       -2.11770000      -0.52530000       0.34220000
H       -1.43970000      -0.53090000      -1.28330000
H       -0.24950000      -2.74120000       1.93210000
