21
Properties=species:S:1:pos:R:3 gdb_72885=T pbc="F F F"
C       -0.45080000       1.55660000       0.00990000
C       -0.00870000       0.11040000       0.00880000
C       -1.09280000      -0.99430000       0.15240000
C       -0.24440000      -1.70470000       1.24910000
C        0.80930000      -0.56480000       1.18880000
C        1.93700000      -0.83550000       0.20030000
C        3.38360000      -0.81840000       0.42200000
O        2.68210000      -2.04320000       0.16570000
C        1.13390000      -0.28180000      -0.98390000
H        0.40520000       2.23840000       0.07230000
H       -0.99990000       1.79940000      -0.90860000
H       -1.11250000       1.77120000       0.85650000
H       -2.03860000      -0.60310000       0.53870000
H       -1.30900000      -1.57010000      -0.75240000
H       -0.74930000      -1.78790000       2.21360000
H        0.15320000      -2.68740000       0.98510000
H        1.06030000      -0.05860000       2.12300000
H        4.05080000      -0.48740000      -0.37390000
H        3.77730000      -0.70930000       1.43240000
H        0.86190000      -1.02930000      -1.73480000
H        1.60360000       0.56680000      -1.49050000
