16
Properties=species:S:1:pos:R:3 gdb_127791=T pbc="F F F"
C       -0.02770000       1.45170000       0.01450000
N       -0.01090000      -0.00180000       0.07760000
N       -0.02750000      -0.70730000      -1.05690000
N       -0.00720000      -1.98300000      -0.75080000
C        0.02260000      -2.09740000       0.59440000
C        0.02140000      -0.83320000       1.16140000
C        0.04660000      -0.37200000       2.55870000
C        0.08090000      -1.45020000       3.62390000
O        0.04020000       0.81230000       2.83750000
H        0.86370000       1.86060000       0.49170000
H       -0.05530000       1.71600000      -1.04220000
H       -0.90400000       1.84190000       0.53350000
H        0.04320000      -3.06000000       1.08020000
H        0.96860000      -2.08050000       3.50520000
H        0.09500000      -0.97840000       4.60650000
H       -0.79510000      -2.10210000       3.54070000
