15
Properties=species:S:1:pos:R:3 gdb_75786=T pbc="F F F"
C        0.33680000       1.47000000      -0.31540000
C        0.00190000       0.01570000      -0.05130000
O        0.83500000      -0.89780000      -0.87090000
C        1.42890000      -1.43660000       0.24910000
O        2.31650000      -2.22350000       0.29510000
C        0.56360000      -0.62560000       1.23380000
O        1.23270000       0.26460000       2.08130000
C       -1.45580000      -0.29650000      -0.35410000
O       -2.28380000      -0.52080000       0.48770000
H        1.40180000       1.64460000      -0.15240000
H        0.08370000       1.73910000      -1.34520000
H       -0.22670000       2.11200000       0.36760000
H       -0.18320000      -1.23650000       1.75520000
H        1.66990000      -0.24540000       2.77170000
H       -1.69610000      -0.29810000      -1.43940000
