11
Properties=species:S:1:pos:R:3 gdb_130909=T pbc="F F F"
O       -0.17040000      -0.00790000       0.24510000
C       -0.04460000       1.18090000       0.15050000
C        1.26850000       1.89130000      -0.06040000
N        2.33600000       1.16680000      -0.14570000
O        3.52200000       1.83480000      -0.33790000
C        3.59240000       3.22000000      -0.43840000
O        4.65370000       3.74360000      -0.60600000
C        2.29080000       3.89850000      -0.32040000
N        1.18420000       3.27510000      -0.14110000
H       -0.89230000       1.89300000       0.20890000
H        2.30170000       4.98420000      -0.39340000
