14
Properties=species:S:1:pos:R:3 gdb_123963=T pbc="F F F"
C        0.01800000       1.53310000      -0.08620000
N        1.36790000       2.05180000       0.19610000
C        2.36450000       1.27670000       0.29830000
N        2.36770000      -0.12000000       0.15950000
C        1.12000000      -0.68250000       0.07810000
C       -0.03120000       0.02970000      -0.04230000
C       -1.00390000      -1.00110000      -0.07860000
N       -0.48660000      -2.20630000       0.00780000
O        0.91680000      -1.99390000       0.11020000
H       -0.66970000       1.98700000       0.63920000
H       -0.28890000       1.92780000      -1.06570000
H        3.35120000       1.69080000       0.50000000
H        3.15480000      -0.66230000       0.47770000
H       -2.07900000      -0.91680000      -0.16570000
