14
Properties=species:S:1:pos:R:3 gdb_29386=T pbc="F F F"
N       -0.09890000       1.39020000      -0.35380000
C       -0.06040000       0.02960000      -0.09040000
C       -1.04760000      -0.84940000       0.23410000
O       -0.47430000      -2.10390000       0.30630000
C        0.82060000      -1.89920000       0.02540000
C        1.73920000      -3.08100000       0.00580000
C        1.83150000      -3.76160000       1.30050000
N        1.90670000      -4.30320000       2.31760000
N        1.13550000      -0.66550000      -0.21790000
H        0.80370000       1.82600000      -0.22250000
H       -0.82580000       1.89220000       0.13560000
H       -2.10230000      -0.78750000       0.43030000
H        1.40860000      -3.80870000      -0.74530000
H        2.72940000      -2.72550000      -0.29000000
