22
Properties=species:S:1:pos:R:3 gdb_76449=T pbc="F F F"
C        1.62960000      -4.06220000       1.60760000
C        1.05940000      -2.86260000       0.88140000
N        0.38320000      -1.74890000       1.55380000
C        0.23530000      -1.72770000       3.00080000
C        1.67810000      -1.49490000       0.90470000
C        2.93880000      -1.21110000       1.70320000
C        1.55040000      -0.62470000      -0.34760000
C        1.28500000       0.82150000       0.00960000
O        1.94450000       1.76040000      -0.35940000
H        2.18520000      -3.80730000       2.51110000
H        0.82810000      -4.75260000       1.89310000
H        2.30950000      -4.60680000       0.94390000
H        0.56030000      -3.14590000      -0.04730000
H        1.07200000      -2.14450000       3.57780000
H        0.08850000      -0.69230000       3.32480000
H       -0.66610000      -2.28960000       3.26660000
H        3.82300000      -1.41420000       1.08970000
H        2.98490000      -0.15620000       1.99600000
H        3.02070000      -1.81070000       2.60970000
H        2.44830000      -0.67890000      -0.97130000
H        0.69150000      -0.97960000      -0.93030000
H        0.40130000       0.96280000       0.67200000
