14
Properties=species:S:1:pos:R:3 gdb_10902=T pbc="F F F"
C       -0.05110000       1.56260000       0.09660000
C        0.15820000       0.09130000      -0.01980000
O       -0.77660000      -0.81700000       0.62010000
C        0.60390000      -0.96120000       0.93840000
C        1.22770000      -1.82980000      -0.15340000
O        0.80480000      -3.16060000      -0.20320000
C        0.67720000      -0.76910000      -1.17170000
O        0.73140000      -0.66390000      -2.36090000
H        0.85640000       2.10390000      -0.18730000
H       -0.85840000       1.88600000      -0.56790000
H       -0.31930000       1.83070000       1.12170000
H        0.90480000      -0.84200000       1.97210000
H        2.32890000      -1.73520000      -0.14550000
H        0.91450000      -3.47200000      -1.10850000
