16
Properties=species:S:1:pos:R:3 gdb_49652=T pbc="F F F"
O        0.09190000       0.00070000      -0.41200000
C        0.06330000       1.18180000      -0.14560000
N        1.12430000       1.90000000       0.32810000
C        2.56890000       1.59980000       0.18200000
C        2.82010000       1.96680000      -1.30030000
C        2.46840000       3.45110000      -1.07800000
O        3.52790000       3.85530000      -0.16020000
C        2.84110000       3.06260000       0.80040000
C        1.46160000       3.30740000       0.16900000
H       -0.85740000       1.79890000      -0.20060000
H        2.94110000       0.66920000       0.59890000
H        3.85920000       1.86970000      -1.61870000
H        2.16010000       1.41290000      -1.96970000
H        2.32350000       4.13060000      -1.91490000
H        3.13130000       3.18920000       1.84050000
H        0.75140000       4.09230000       0.41760000
