13
Properties=species:S:1:pos:R:3 gdb_600=T pbc="F F F"
C       -0.09280000       1.52340000      -0.09270000
C       -0.01360000       0.02530000       0.05070000
N        1.29300000      -0.59670000      -0.18120000
C        0.71010000      -0.63900000       1.18440000
C        1.37880000       0.10120000       2.21880000
C        1.91050000       0.70880000       3.10990000
H        0.80120000       1.99530000       0.32000000
H       -0.17500000       1.80290000      -1.14820000
H       -0.96870000       1.91660000       0.43390000
H       -0.88940000      -0.51810000      -0.30320000
H        1.18710000      -1.50960000      -0.61640000
H        0.29870000      -1.59080000       1.51480000
H        2.39120000       1.24630000       3.88930000
