20
Properties=species:S:1:pos:R:3 gdb_94173=T pbc="F F F"
C        0.51910000       1.66410000      -0.24090000
C       -0.01290000       0.30150000       0.18270000
N        0.30570000      -0.82440000      -0.74650000
H       -0.74450000      -1.96730000       0.31360000
H        0.47470000      -0.57720000      -1.71670000
C        1.48950000      -1.19080000       0.07170000
C        0.81550000      -0.47130000       1.28140000
C        1.69130000       0.29740000       2.25260000
C       -0.10840000      -1.44590000       2.03210000
O       -0.12840000      -1.54210000       3.23090000
O       -0.91140000      -2.19870000       1.25630000
H        1.58640000       1.63780000      -0.48140000
H       -0.01940000       2.01350000      -1.12890000
H        0.36750000       2.40540000       0.54980000
H       -1.08650000       0.37960000       0.38790000
H        1.67230000      -2.26640000       0.15070000
H        2.41850000      -0.68980000      -0.22630000
H        2.35260000       0.99340000       1.72970000
H        1.08230000       0.85730000       2.96690000
H        2.30660000      -0.39360000       2.83470000
