20
Properties=species:S:1:pos:R:3 gdb_59839=T pbc="F F F"
C        0.49810000       0.77350000      -0.80300000
C       -0.18280000      -0.26140000       0.09920000
C        0.59370000      -0.46410000       1.40540000
C       -1.64790000       0.13390000       0.41360000
C       -2.50340000       0.21040000      -0.76490000
C       -3.19140000       0.25930000      -1.75050000
C       -4.03460000       0.32570000      -2.94170000
C       -3.31720000       0.81870000      -4.12600000
N       -2.76220000       1.20420000      -5.06220000
H        1.51760000       0.46220000      -1.05140000
H       -0.05160000       0.91170000      -1.73800000
H        0.56080000       1.74690000      -0.30150000
H       -0.21430000      -1.21840000      -0.43720000
H        0.63590000       0.46560000       1.98550000
H        0.13040000      -1.23080000       2.03570000
H        1.62360000      -0.77380000       1.20290000
H       -2.07450000      -0.59180000       1.11810000
H       -1.65430000       1.10230000       0.93300000
H       -4.44770000      -0.66260000      -3.18200000
H       -4.89750000       0.98240000      -2.76940000
