21
Properties=species:S:1:pos:R:3 gdb_63770=T pbc="F F F"
C        0.24460000       1.20640000      -0.91610000
C        0.54760000      -0.27370000      -0.68830000
C       -0.65540000      -1.12020000      -1.12320000
C        1.88060000      -0.87560000      -1.27390000
C        2.23630000      -1.40700000       0.12490000
C        2.40830000      -0.29250000       1.13750000
C        3.08910000       1.00050000       0.87740000
O        3.64020000       1.64090000       1.74210000
C        1.01000000      -0.73400000       0.71000000
H        1.06770000       1.86010000      -0.62060000
H        0.03270000       1.39670000      -1.97460000
H       -0.63930000       1.51060000      -0.34400000
H       -0.86900000      -0.97160000      -2.18740000
H       -0.47280000      -2.18710000      -0.95880000
H       -1.55310000      -0.84250000      -0.55890000
H        1.68900000      -1.67560000      -1.99240000
H        2.58630000      -0.17540000      -1.72820000
H        2.64140000      -2.38990000       0.33300000
H        2.63620000      -0.64860000       2.13940000
H        3.10550000       1.35120000      -0.17470000
H        0.33780000      -1.09640000       1.48090000
