15
Properties=species:S:1:pos:R:3 gdb_68106=T pbc="F F F"
O        0.00100000       1.36270000       0.13760000
C        0.04880000      -0.00160000       0.06870000
C        0.68170000      -1.01400000       1.10070000
C        0.05470000      -1.94880000       0.00100000
C       -1.18110000      -0.96960000       0.02120000
C        0.04930000      -3.37140000      -0.04340000
C        0.05440000      -4.57280000      -0.09950000
C        0.65650000      -0.91630000      -0.99750000
O        1.26840000      -0.85500000      -2.01600000
H        0.64090000       1.72390000      -0.48690000
H        1.76700000      -1.03130000       1.20990000
H        0.16310000      -1.05380000       2.06030000
H       -1.75790000      -1.01080000       0.94690000
H       -1.81530000      -0.94760000      -0.86600000
H        0.06070000      -5.63330000      -0.15150000
