10
Properties=species:S:1:pos:R:3 gdb_21819=T pbc="F F F"
O       -0.04380000      -0.06230000      -0.00050000
C       -0.01250000       1.13210000       0.00760000
N        1.17490000       1.89070000       0.00020000
N        2.43610000       1.33670000      -0.01750000
N        3.27470000       2.28190000      -0.01950000
N        2.60780000       3.46690000      -0.00360000
C        1.23630000       3.29810000       0.00970000
O        0.34070000       4.10350000       0.02540000
H       -0.88280000       1.80730000       0.02210000
H        3.11520000       4.33630000      -0.00240000
