23
Properties=species:S:1:pos:R:3 gdb_119266=T pbc="F F F"
C       -0.25570000       1.40120000       0.57610000
C       -0.14460000      -0.00980000      -0.00740000
C       -1.37670000      -0.87180000       0.30330000
C       -1.33780000      -2.24450000      -0.33870000
C       -0.26640000      -3.20290000       0.14450000
O       -0.42950000      -3.39500000       1.53330000
C        0.55470000      -4.23430000       2.08890000
C       -2.54610000      -2.80950000      -0.95510000
O       -1.49720000      -2.26860000      -1.76560000
H        0.63050000       1.99980000       0.34370000
H       -1.12840000       1.92790000       0.17400000
H       -0.36210000       1.37160000       1.66630000
H       -0.01790000       0.04500000      -1.09510000
H        0.75680000      -0.49360000       0.38780000
H       -1.47860000      -1.00340000       1.38690000
H       -2.27600000      -0.35120000      -0.04580000
H       -0.35310000      -4.15360000      -0.40460000
H        0.73410000      -2.79330000      -0.07360000
H        0.53060000      -5.24170000       1.64430000
H        1.56750000      -3.82380000       1.94990000
H        0.34980000      -4.31580000       3.15900000
H       -2.67180000      -3.89010000      -1.01340000
H       -3.47140000      -2.23530000      -0.94730000
