15
Properties=species:S:1:pos:R:3 gdb_67924=T pbc="F F F"
C       -0.09210000       1.50360000       0.06930000
C        0.05330000       0.02080000       0.07980000
O       -1.16460000      -0.77160000      -0.02610000
C       -0.68850000      -1.65340000       0.94010000
O       -1.27280000      -2.54840000       1.45210000
C        0.65100000      -0.97150000       1.04770000
C        1.21460000      -0.80750000      -0.39000000
C        1.13040000      -1.82610000      -1.39590000
C        1.07320000      -2.67570000      -2.24360000
H        0.87460000       1.98170000       0.24850000
H       -0.46710000       1.84270000      -0.90160000
H       -0.79490000       1.82680000       0.84260000
H        1.26790000      -0.86400000       1.92810000
H        2.15610000      -0.26030000      -0.37020000
H        1.00990000      -3.42900000      -2.98970000
