19
Properties=species:S:1:pos:R:3 gdb_117877=T pbc="F F F"
C       -0.09890000       1.60100000       0.19830000
C       -0.03450000       0.07750000       0.06530000
C       -1.42130000      -0.56690000      -0.02210000
C       -1.35230000      -2.10780000      -0.08930000
O       -0.68080000      -2.67340000       1.03010000
C       -2.69100000      -2.67710000      -0.26080000
C       -3.81050000      -3.12670000      -0.33940000
C       -5.14040000      -3.66100000      -0.47890000
O       -5.77510000      -4.16120000       0.42120000
H        0.90410000       2.03460000       0.25390000
H       -0.61170000       2.05590000      -0.65640000
H       -0.64000000       1.89760000       1.10370000
H        0.54270000      -0.19130000      -0.82930000
H        0.50200000      -0.35420000       0.91630000
H       -2.02840000      -0.28470000       0.84850000
H       -1.95880000      -0.20270000      -0.90610000
H       -0.73690000      -2.39070000      -0.95320000
H       -1.26260000      -2.59090000       1.79460000
H       -5.55550000      -3.57730000      -1.50390000
