22
Properties=species:S:1:pos:R:3 gdb_70892=T pbc="F F F"
C       -0.07770000       1.47450000       0.02750000
C        0.07100000      -0.01890000      -0.03110000
C        0.27110000      -0.77730000      -1.34180000
C        0.21190000      -2.21000000      -0.75730000
C        0.32110000      -3.37650000      -1.71780000
C        1.25920000      -2.10720000       0.38000000
C        0.68790000      -0.85960000       1.03770000
N       -0.79190000      -0.84940000       0.85670000
C       -1.07960000      -2.07690000       0.08020000
H        0.81960000       1.97480000      -0.35420000
H       -0.93010000       1.80930000      -0.57470000
H       -0.24470000       1.80490000       1.05610000
H       -0.52540000      -0.58520000      -2.06980000
H        1.23340000      -0.54960000      -1.81370000
H        1.27680000      -3.36730000      -2.25330000
H        0.24820000      -4.33350000      -1.18900000
H       -0.47780000      -3.35000000      -2.46730000
H        1.25520000      -2.98330000       1.03780000
H        2.27800000      -1.95820000       0.00620000
H        1.07040000      -0.45310000       1.96710000
H       -1.97720000      -1.93440000      -0.53090000
H       -1.24680000      -2.92200000       0.75680000
