15
Properties=species:S:1:pos:R:3 gdb_15020=T pbc="F F F"
C       -0.20750000      -1.08520000       0.06260000
C       -0.04770000       0.10320000       0.01280000
C        0.11870000       1.56120000      -0.02460000
C        1.53590000       1.94260000      -0.05340000
C        2.68830000       2.27790000      -0.05820000
N       -0.57770000       2.11850000      -1.19900000
C       -2.00430000       2.37100000      -1.00910000
C       -1.03340000       3.49880000      -1.04970000
H       -0.33760000      -2.13860000       0.09900000
H       -0.31390000       1.96740000       0.91150000
H        3.71100000       2.56410000      -0.06930000
H       -2.63360000       2.14680000      -1.86460000
H       -2.44360000       2.12460000      -0.04410000
H       -0.82110000       4.00910000      -0.11180000
H       -0.93610000       4.11850000      -1.93560000
