18
Properties=species:S:1:pos:R:3 gdb_75952=T pbc="F F F"
C       -0.88350000       0.97720000      -0.03130000
C        0.25280000      -0.03680000       0.03340000
C        1.03900000      -0.16590000      -1.26070000
N        0.70520000       0.45570000      -2.30920000
O        2.12980000      -0.99020000      -1.23230000
C        2.46520000      -1.61930000       0.00960000
C        2.50440000      -0.60110000       1.14220000
C        1.20780000       0.19980000       1.21250000
O        0.95230000       0.94830000       2.12120000
H       -0.49470000       1.97270000      -0.25450000
H       -1.58870000       0.70900000      -0.81880000
H       -1.39900000       1.01650000       0.93010000
H       -0.16500000      -1.04020000       0.23250000
H        1.34890000       0.23460000      -3.07150000
H        1.74980000      -2.42440000       0.22550000
H        3.44190000      -2.07870000      -0.15390000
H        2.68630000      -1.07880000       2.10970000
H        3.32240000       0.11090000       0.97720000
