21
Properties=species:S:1:pos:R:3 gdb_39958=T pbc="F F F"
C        0.47510000       1.55340000       0.05610000
C        1.41560000       0.37780000      -0.19270000
C       -0.03650000       0.15230000       0.06270000
C       -0.73830000      -0.64060000       1.15610000
C       -1.64780000      -1.12400000       0.00200000
C       -1.84490000      -2.63170000      -0.26620000
C       -3.28280000      -2.49700000       0.30890000
C       -3.18090000      -0.96170000       0.08730000
O       -0.91360000      -0.33400000      -0.95500000
H        0.54610000       2.08760000       0.99840000
H        0.21390000       2.16930000      -0.79780000
H        1.76620000       0.22920000      -1.20850000
H        2.12940000       0.10850000       0.57950000
H       -0.13710000      -1.41910000       1.63170000
H       -1.23760000      -0.04360000       1.92290000
H       -1.85540000      -2.81920000      -1.34380000
H       -1.15090000      -3.32940000       0.20990000
H       -4.08170000      -3.02550000      -0.21380000
H       -3.32860000      -2.75820000       1.36940000
H       -3.58110000      -0.29180000       0.85290000
H       -3.57810000      -0.66590000      -0.88800000
