21
Properties=species:S:1:pos:R:3 gdb_93640=T pbc="F F F"
C        0.87090000       1.28230000      -0.44410000
C        0.04210000       0.13390000       0.13610000
O       -0.14880000      -0.91400000      -0.81440000
C        0.96570000      -1.79170000      -0.75680000
C        1.59780000      -1.64820000       0.66870000
C        3.00770000      -1.28300000       0.61620000
C        4.17580000      -1.00040000       0.55900000
C        0.66050000      -0.59240000       1.34880000
C        1.29330000       0.28220000       2.42660000
H        1.89890000       0.97500000      -0.65760000
H        0.41210000       1.62610000      -1.37530000
H        0.90870000       2.12680000       0.25100000
H       -0.96030000       0.50440000       0.37900000
H        0.60130000      -2.80610000      -0.94460000
H        1.70800000      -1.54510000      -1.52640000
H        1.51760000      -2.59640000       1.20990000
H        5.20710000      -0.75210000       0.51030000
H       -0.15510000      -1.16720000       1.80160000
H        2.14900000       0.84300000       2.04390000
H        0.56100000       0.99540000       2.81980000
H        1.64640000      -0.32590000       3.26530000
