21
Properties=species:S:1:pos:R:3 gdb_103416=T pbc="F F F"
C       -0.12110000       1.55320000      -0.08560000
C        0.00660000       0.04300000       0.05160000
C        1.00070000      -0.66770000      -0.87790000
O        2.31660000      -0.20090000      -0.54160000
C        1.74210000      -1.24340000       0.25190000
C        0.80180000      -0.58660000       1.28560000
C        1.46240000       0.36850000       2.27350000
C       -0.04660000      -1.63630000       1.99280000
O       -1.13030000      -0.97480000       2.63130000
H        0.86160000       2.02970000      -0.12310000
H       -0.65640000       1.81120000      -1.00640000
H       -0.68100000       1.97700000       0.75370000
H       -0.98150000      -0.42350000      -0.00440000
H        0.85780000      -1.03590000      -1.88810000
H        2.30560000      -2.16730000       0.33660000
H        2.11590000       1.07290000       1.75540000
H        0.70990000       0.92770000       2.83560000
H        2.07100000      -0.18890000       2.99560000
H       -0.41020000      -2.37530000       1.25950000
H        0.57370000      -2.17870000       2.72570000
H       -1.66080000      -1.63430000       3.08730000
