18
Properties=species:S:1:pos:R:3 gdb_41383=T pbc="F F F"
C       -0.01090000       1.61380000       0.26750000
C        1.44040000       1.66220000      -0.29180000
C        1.34210000       0.15590000      -0.64760000
C        2.13630000      -0.46930000      -1.82640000
O        2.97350000      -1.23350000      -0.86390000
C        2.06280000      -0.89760000       0.10500000
N        1.56770000      -1.49040000       1.10080000
C        0.25500000      -0.81320000       1.30110000
C       -0.06540000       0.07890000       0.02740000
H       -0.13730000       1.92710000       1.30660000
H       -0.71840000       2.17430000      -0.34790000
H        1.55610000       2.30420000      -1.16900000
H        2.22490000       1.91800000       0.42540000
H        1.59760000      -1.16390000      -2.47570000
H        2.74810000       0.22640000      -2.40470000
H       -0.49790000      -1.59470000       1.44210000
H        0.25950000      -0.20690000       2.21540000
H       -0.92710000      -0.29640000      -0.52740000
