19
Properties=species:S:1:pos:R:3 gdb_40210=T pbc="F F F"
C       -0.05330000       1.47470000       0.01000000
O        1.23590000       0.87790000       0.00660000
C        0.07360000       0.00130000       0.02100000
C       -0.14710000      -0.71320000       1.33630000
C        0.63620000      -2.03310000       1.46850000
C        0.01330000      -3.17710000       0.71940000
C       -0.43180000      -3.13160000      -0.54510000
C       -0.36690000      -2.01340000      -1.47830000
C       -0.12570000      -0.70880000      -1.26180000
H       -0.33640000       1.98940000       0.92800000
H       -0.33990000       1.98510000      -0.90930000
H        0.15680000      -0.02880000       2.13430000
H       -1.21810000      -0.91190000       1.46390000
H        1.66580000      -1.86480000       1.11990000
H        0.71470000      -2.29710000       2.52770000
H       -0.08050000      -4.11810000       1.25560000
H       -0.84750000      -4.04520000      -0.96410000
H       -0.52690000      -2.29580000      -2.51720000
H       -0.06710000      -0.05880000      -2.13140000
