20
Properties=species:S:1:pos:R:3 gdb_73152=T pbc="F F F"
C        0.21820000       1.63380000       0.14780000
C        0.10830000       0.13260000       0.13840000
O       -1.25100000      -0.33130000      -0.06040000
C       -1.14830000      -1.25190000       1.05230000
C        0.30690000      -0.84510000       1.34260000
C        1.38140000      -1.62890000       0.54200000
C        1.12220000      -0.71090000      -0.66260000
C        1.05110000      -1.01010000      -2.10540000
N        2.17650000      -0.22770000      -1.55170000
H        1.23910000       1.95200000       0.38230000
H       -0.05380000       2.04400000      -0.83260000
H       -0.46240000       2.06430000       0.88750000
H       -1.86890000      -0.99960000       1.83980000
H       -1.30430000      -2.29470000       0.74710000
H        0.55150000      -0.52190000       2.35360000
H        2.39110000      -1.50260000       0.94140000
H        1.18970000      -2.69650000       0.39860000
H        1.32080000      -1.99840000      -2.46880000
H        0.28900000      -0.50170000      -2.69090000
H        2.04220000       0.76130000      -1.75280000
