18
Properties=species:S:1:pos:R:3 gdb_78975=T pbc="F F F"
O        0.10440000       1.40260000       0.14730000
C        0.02460000       0.00020000       0.04140000
C       -1.37910000      -0.54880000      -0.28750000
C       -1.60360000       0.01320000      -1.70120000
C       -1.34470000      -1.29880000      -2.32660000
C       -1.10260000      -1.97140000      -0.96370000
C        0.43000000      -2.12220000      -0.95660000
C        0.68160000      -0.62700000      -1.20950000
N       -0.27650000      -0.26690000      -2.33470000
H       -0.13620000       1.77540000      -0.70880000
H        0.44750000      -0.39740000       0.96840000
H       -2.16300000      -0.46340000       0.46110000
H       -2.18610000       0.86580000      -2.03200000
H       -1.67460000      -1.73460000      -3.26300000
H       -1.72430000      -2.81260000      -0.66520000
H        0.85620000      -2.46770000      -0.01020000
H        0.78410000      -2.76910000      -1.76470000
H        1.69410000      -0.30260000      -1.44430000
