12
Properties=species:S:1:pos:R:3 gdb_23729=T pbc="F F F"
F       -0.00730000       0.00590000       0.00310000
C       -0.03120000       1.34180000       0.01060000
C       -1.19370000       2.01100000       0.02950000
O       -1.23660000       3.36530000       0.03730000
C       -0.07380000       4.14240000       0.02630000
N       -0.14480000       5.41030000       0.03400000
C        1.17960000       3.40880000       0.00580000
C        1.20890000       2.06060000      -0.00190000
H       -2.17270000       1.55160000       0.03990000
H       -1.11630000       5.72100000       0.04840000
H        2.07760000       4.01220000      -0.00280000
H        2.13850000       1.50300000      -0.01710000
