20
Properties=species:S:1:pos:R:3 gdb_87484=T pbc="F F F"
C       -0.09470000       1.59120000       0.05450000
C       -0.05030000       0.07510000       0.05490000
C        1.13870000      -0.63860000      -0.65780000
O        2.04200000      -0.16380000       0.42260000
C        0.82130000      -0.65100000       1.12250000
C        0.85750000      -1.88090000       0.20660000
C        0.12260000      -3.14570000       0.01270000
N        1.55610000      -3.10990000       0.37490000
C        2.51640000      -3.49930000      -0.64930000
H        0.90100000       2.00240000       0.23160000
H       -0.46480000       1.96930000      -0.90450000
H       -0.76960000       1.95970000       0.83450000
H       -1.03050000      -0.37970000      -0.12260000
H        1.49080000      -0.54490000      -1.68540000
H        0.80330000      -0.58620000       2.21030000
H       -0.54660000      -3.54220000       0.77180000
H       -0.13360000      -3.42030000      -1.01090000
H        2.19960000      -3.23170000      -1.67110000
H        3.47090000      -3.00620000      -0.44490000
H        2.66810000      -4.58210000      -0.60990000
