15
Properties=species:S:1:pos:R:3 gdb_35399=T pbc="F F F"
C       -0.16840000      -1.27060000      -0.13530000
C       -0.04740000      -0.08380000       0.00980000
C        0.05060000       1.35960000       0.10280000
O       -0.15140000       1.91830000       1.43830000
C        1.07030000       2.66990000       1.36230000
C        2.32990000       1.97980000       1.96860000
O        2.20440000       0.58290000       1.72400000
C        2.65760000       1.39500000       0.64670000
C        1.43130000       2.07170000      -0.01380000
H       -0.25630000      -2.32380000      -0.23910000
H       -0.67650000       1.81360000      -0.58380000
H        0.95200000       3.73780000       1.55740000
H        2.95490000       2.28760000       2.79930000
H        3.60750000       1.13820000       0.19290000
H        1.62460000       2.68010000      -0.89460000
