21
Properties=species:S:1:pos:R:3 gdb_71910=T pbc="F F F"
C        0.04680000       1.47930000       0.02440000
C        0.00230000      -0.03910000       0.00320000
C        0.60790000      -0.70270000      -1.26620000
C        0.27390000      -2.19050000      -1.04500000
O        1.17440000      -2.74440000      -0.05470000
C        0.30660000      -2.21960000       0.97970000
C        0.64830000      -0.73870000       1.23280000
C       -0.89480000      -2.14230000      -0.01260000
C       -1.39950000      -0.70250000       0.01630000
H        1.07870000       1.84760000       0.01360000
H       -0.46510000       1.90330000      -0.84710000
H       -0.43740000       1.87780000       0.92330000
H        0.11600000      -0.31290000      -2.16600000
H        1.68640000      -0.55420000      -1.37070000
H        0.22060000      -2.80660000      -1.94520000
H        0.28210000      -2.86140000       1.86310000
H        1.72970000      -0.59280000       1.30660000
H        0.18590000      -0.37520000       2.15890000
H       -1.60290000      -2.96820000      -0.01300000
H       -1.97380000      -0.46360000       0.91810000
H       -2.00250000      -0.43800000      -0.85910000
