19
Properties=species:S:1:pos:R:3 gdb_49645=T pbc="F F F"
O       -0.74960000       0.76480000      -0.58490000
C        0.11880000       0.89920000       0.24180000
C        1.23480000       1.90550000       0.20380000
C        1.30940000       3.08140000      -0.80640000
C       -0.01970000       3.82480000      -0.54780000
C        0.31740000       4.20180000       0.91190000
C        1.53910000       5.13670000       0.70160000
C        2.22950000       3.84140000       0.25180000
C        1.34620000       3.03510000       1.25760000
H        0.15340000       0.23350000       1.13850000
H        2.17730000       1.33940000       0.23400000
H        1.62390000       2.91940000      -1.83570000
H       -0.14650000       4.71070000      -1.17640000
H       -0.88830000       3.17940000      -0.67160000
H       -0.49900000       4.46480000       1.58320000
H        1.42880000       5.97260000       0.00350000
H        1.96810000       5.49460000       1.64230000
H        3.30830000       3.70920000       0.17300000
H        1.61500000       2.87120000       2.30010000
