19
Properties=species:S:1:pos:R:3 gdb_108186=T pbc="F F F"
C        0.01870000       1.37180000      -0.04430000
O       -0.04350000      -0.03820000       0.03900000
C       -1.32790000      -0.58490000       0.05640000
C       -2.23830000      -0.30100000      -1.19400000
O       -3.21430000      -1.34190000      -1.14720000
C       -2.88510000      -2.14660000       0.02930000
C       -1.35260000      -2.13090000      -0.00390000
C       -3.16590000      -1.29000000       1.25450000
C       -2.22470000      -0.33990000       1.26690000
H        1.07650000       1.64200000      -0.01290000
H       -0.41240000       1.75120000      -0.98120000
H       -0.49220000       1.86200000       0.79640000
H       -2.72960000       0.67770000      -1.15640000
H       -1.64730000      -0.37480000      -2.11640000
H       -3.40860000      -3.09570000      -0.06320000
H       -0.93680000      -2.53590000      -0.92990000
H       -0.88050000      -2.58360000       0.86810000
H       -4.03500000      -1.37410000       1.89410000
H       -2.15320000       0.51680000       1.92470000
