18
Properties=species:S:1:pos:R:3 gdb_41069=T pbc="F F F"
C       -0.02430000       1.45220000       0.27470000
C        1.46350000       1.60180000      -0.23050000
C        1.26000000       0.23320000      -0.88710000
C        1.82520000      -1.08380000      -1.43920000
C        0.98050000      -1.06240000      -2.69830000
C        0.44040000      -1.81460000      -1.52400000
N       -0.59850000      -0.78010000      -1.13290000
C        0.07920000      -0.09540000       0.02420000
C        0.22210000       0.12420000      -2.07540000
H       -0.20820000       1.74160000       1.31040000
H       -0.75180000       1.95810000      -0.36280000
H        1.70960000       2.45070000      -0.87400000
H        2.16900000       1.57400000       0.60580000
H        2.73730000      -1.62430000      -1.22650000
H        1.17690000      -1.35760000      -3.72050000
H        0.31080000      -2.87550000      -1.35480000
H        0.18140000      -0.70050000       0.92900000
H       -0.26150000       0.95460000      -2.58510000
