19
Properties=species:S:1:pos:R:3 gdb_78162=T pbc="F F F"
C        0.80910000       2.04950000       0.37200000
C        0.63020000       0.55070000       0.28930000
C        0.77150000      -0.30970000      -0.91710000
C        1.46900000       0.15080000      -2.20030000
C        0.74950000       1.22230000      -3.02290000
N        2.75560000       0.56480000      -1.66810000
C        2.96930000       0.23350000      -0.35020000
O        3.97510000       0.42400000       0.28400000
N        1.77630000      -0.39670000       0.16630000
H        1.54840000       2.43370000      -0.33130000
H       -0.14650000       2.54620000       0.17370000
H        1.12630000       2.32840000       1.38190000
H       -0.08710000       0.17670000       1.01840000
H        0.11060000      -1.16590000      -1.01710000
H        1.59100000      -0.73780000      -2.83920000
H        0.57870000       2.13120000      -2.44280000
H        1.33250000       1.48480000      -3.91190000
H       -0.21830000       0.84180000      -3.36460000
H        3.52040000       0.88670000      -2.23870000
