19
Properties=species:S:1:pos:R:3 gdb_62856=T pbc="F F F"
C       -0.14400000       1.52700000       0.05340000
C       -0.00220000       0.00980000       0.02780000
O       -1.26230000      -0.59020000       0.26170000
C        0.73890000      -0.60910000      -1.19720000
C        2.06770000      -0.27150000      -0.45980000
C        1.22400000      -0.58900000       0.82060000
C        0.97220000      -2.07710000       0.59080000
O        1.04320000      -2.98520000       1.37240000
C        0.62100000      -2.12070000      -0.91470000
H        0.78570000       2.05730000      -0.15960000
H       -0.89260000       1.83270000      -0.68410000
H       -0.48990000       1.85720000       1.04080000
H       -1.63410000      -0.22050000       1.06950000
H        0.53460000      -0.26280000      -2.21040000
H        2.92390000      -0.91960000      -0.66150000
H        2.37430000       0.77120000      -0.52630000
H        1.50420000      -0.27570000       1.82500000
H       -0.37780000      -2.53210000      -1.06650000
H        1.34380000      -2.71980000      -1.47680000
