17
Properties=species:S:1:pos:R:3 gdb_1858=T pbc="F F F"
C        0.06390000       1.58050000      -0.02040000
C        0.04800000       0.04830000       0.02350000
C        0.74430000      -0.63600000      -1.18230000
C        1.48690000      -1.87650000      -0.61740000
O        2.75000000      -2.12800000      -1.22110000
C        1.55080000      -1.58300000       0.86450000
C        0.78500000      -0.54830000       1.20430000
H        1.09150000       1.95950000      -0.05180000
H       -0.45990000       1.95440000      -0.90640000
H       -0.42520000       2.00860000       0.86130000
H       -1.00350000      -0.27360000       0.06840000
H        0.05520000      -0.88630000      -1.99270000
H        1.49850000       0.04220000      -1.60110000
H        0.92020000      -2.79780000      -0.80510000
H        3.32000000      -1.37980000      -1.01010000
H        2.14390000      -2.19190000       1.53820000
H        0.65230000      -0.16950000       2.21330000
