17
Properties=species:S:1:pos:R:3 gdb_8656=T pbc="F F F"
C       -0.10050000       1.53390000       0.11030000
C       -0.00090000       0.01410000      -0.04070000
C        0.74280000      -0.47270000      -1.32350000
C        2.21420000       0.00590000      -1.36060000
C        0.75350000      -2.00770000      -1.26980000
O        0.20840000      -2.74390000      -2.04130000
C        0.03280000      -0.01130000      -2.52100000
N       -0.52000000       0.39520000      -3.45010000
H        0.88130000       2.00130000       0.22700000
H       -0.59410000       1.98510000      -0.75520000
H       -0.68860000       1.77930000       0.99910000
H        0.52170000      -0.41570000       0.82270000
H       -1.00690000      -0.41900000      -0.04980000
H        2.74200000      -0.34770000      -0.46930000
H        2.72610000      -0.37920000      -2.24600000
H        2.26770000       1.09540000      -1.38460000
H        1.33610000      -2.39100000      -0.40090000
