17
Properties=species:S:1:pos:R:3 gdb_126863=T pbc="F F F"
C       -0.01540000       1.56020000      -0.02640000
C       -0.05290000       0.02900000      -0.07270000
N       -1.43100000      -0.43280000      -0.11720000
C       -1.84810000      -1.18250000      -1.06290000
C       -3.22960000      -1.63390000      -1.11080000
C       -3.61610000      -2.42920000      -2.12020000
N       -2.69030000      -2.78460000      -3.07280000
N       -1.39690000      -2.37210000      -3.06090000
N       -0.99130000      -1.62740000      -2.13230000
H        1.01210000       1.91600000       0.10090000
H       -0.41140000       1.98600000      -0.95390000
H       -0.62170000       1.93620000       0.80280000
H        0.55530000      -0.34020000      -0.90560000
H        0.38850000      -0.36010000       0.85550000
H       -3.91110000      -1.31960000      -0.33210000
H       -4.61570000      -2.82470000      -2.25380000
H       -2.91090000      -3.37520000      -3.85670000
