21
Properties=species:S:1:pos:R:3 gdb_82556=T pbc="F F F"
C       -0.13400000       1.55300000      -0.04720000
C        0.01890000       0.03400000      -0.04940000
C        0.96420000      -0.56860000      -1.14450000
C        2.44740000      -0.41690000      -0.65810000
C        1.84820000      -1.37720000       0.37760000
C        2.00580000      -2.33680000       1.55810000
C        0.57080000      -1.85570000       2.00280000
C        0.80130000      -0.55950000       1.15540000
O        1.02180000      -1.95020000      -0.69290000
H        0.83090000       2.05560000       0.08310000
H       -0.57010000       1.91100000      -0.98640000
H       -0.78820000       1.88120000       0.76720000
H       -0.96130000      -0.43620000      -0.17890000
H        0.68850000      -0.45110000      -2.19380000
H        3.12790000      -0.88230000      -1.37250000
H        2.81960000       0.55180000      -0.31400000
H        2.15520000      -3.39140000       1.31790000
H        2.77480000      -2.00780000       2.26190000
H       -0.20880000      -2.49500000       1.58770000
H        0.40480000      -1.72330000       3.07370000
H        1.24950000       0.22090000       1.77860000
