14
Properties=species:S:1:pos:R:3 gdb_15128=T pbc="F F F"
O       -0.06820000      -0.00170000      -0.28530000
C        0.02880000       1.20330000      -0.24260000
C        1.26850000       1.91760000      -0.07680000
C        2.29280000       2.54310000       0.05580000
C        3.52510000       3.30030000       0.22510000
C        3.30360000       4.80370000       0.26210000
C        4.32960000       5.73490000      -0.21860000
O        3.16260000       5.45340000      -0.99560000
H       -0.86170000       1.85850000      -0.33130000
H        4.01630000       2.98270000       1.15510000
H        4.21550000       3.06160000      -0.59300000
H        2.60620000       5.14570000       1.02720000
H        4.38700000       6.73900000       0.19770000
H        5.26360000       5.34440000      -0.62130000
