19
Properties=species:S:1:pos:R:3 gdb_111614=T pbc="F F F"
C       -0.28370000       1.20750000       0.10190000
O        0.51340000       0.07720000      -0.18690000
C        0.90510000      -0.59560000       0.95790000
C        0.07540000      -1.65900000       1.63780000
C       -1.06840000      -2.36890000       0.89670000
C       -0.42330000      -3.20040000      -0.20820000
O        0.19380000      -2.43780000      -1.24570000
C        1.02900000      -2.95750000      -0.20630000
C        1.38960000      -2.01920000       0.92280000
H        0.25910000       1.93810000       0.72250000
H       -0.53670000       1.67260000      -0.85320000
H       -1.21010000       0.93310000       0.62670000
H        1.45710000       0.04080000       1.65690000
H        0.01920000      -1.62770000       2.72130000
H       -1.59710000      -3.03000000       1.59150000
H       -1.80560000      -1.67380000       0.48080000
H       -0.88390000      -4.13260000      -0.52970000
H        1.76040000      -3.69610000      -0.52430000
H        2.29480000      -2.25650000       1.47120000
