12
Properties=species:S:1:pos:R:3 gdb_4631=T pbc="F F F"
O        0.04040000      -0.04600000       0.00300000
C       -0.00020000       1.16550000       0.00940000
N       -1.12780000       1.99150000       0.02920000
C       -0.77900000       3.32800000       0.03100000
C        0.57870000       3.39990000       0.01270000
N        1.04480000       2.07590000       0.00010000
C        1.43180000       4.51570000       0.00670000
C        2.19010000       5.45230000       0.00100000
H       -2.05860000       1.61350000       0.03990000
H       -1.50470000       4.12200000       0.04500000
H        2.00910000       1.79450000      -0.01490000
H        2.84810000       6.28560000      -0.00380000
