14
Properties=species:S:1:pos:R:3 gdb_23940=T pbc="F F F"
C        0.05970000      -3.76260000      -0.01840000
C        0.04230000      -2.55350000      -0.01160000
C        0.02360000      -1.19630000      -0.00400000
C       -0.00380000       0.01800000       0.00300000
C       -0.00650000       1.42500000       0.01070000
C       -1.12760000       2.24360000       0.03000000
N       -0.69890000       3.53710000       0.03130000
C        0.67620000       3.58180000       0.01330000
C        1.13790000       2.29270000       0.00020000
H        0.07410000      -4.82370000      -0.02440000
H       -2.17450000       1.98970000       0.04250000
H       -1.30240000       4.34070000       0.04370000
H        1.20090000       4.52320000       0.01150000
H        2.16840000       1.97650000      -0.01530000
