19
Properties=species:S:1:pos:R:3 gdb_48987=T pbc="F F F"
O       -0.58250000       0.74620000      -0.71000000
C        0.09070000       1.15560000       0.20050000
C        1.36030000       1.94470000       0.02710000
C        2.64810000       1.08860000       0.21840000
C        3.65440000       2.18220000       0.68750000
C        2.75650000       3.43910000       0.68490000
C        2.48800000       3.89790000      -0.76580000
C        1.49670000       2.79850000      -1.25260000
O        1.48220000       2.90780000       1.08470000
H       -0.16790000       0.95440000       1.26390000
H        2.49640000       0.33030000       0.99130000
H        2.94230000       0.58080000      -0.70210000
H        4.02380000       1.97320000       1.69370000
H        4.51630000       2.28060000       0.02290000
H        3.05430000       4.22670000       1.37710000
H        2.01900000       4.88430000      -0.77390000
H        3.40110000       3.95330000      -1.36370000
H        1.86930000       2.21890000      -2.09890000
H        0.52840000       3.21490000      -1.53560000
