21
Properties=species:S:1:pos:R:3 gdb_30919=T pbc="F F F"
C        0.66680000       0.59630000       0.76430000
N       -0.09900000       0.06880000      -0.36660000
C       -1.31590000      -0.56900000      -0.07090000
C       -1.55520000      -1.91660000       0.11870000
C       -0.52960000      -3.00360000       0.02080000
C       -2.94110000      -2.05170000       0.42110000
C       -3.50030000      -0.79710000       0.40070000
N       -2.51310000       0.11470000       0.11980000
C       -2.72470000       1.52510000      -0.11340000
H        1.61250000       1.00790000       0.39770000
H        0.14980000       1.38040000       1.34190000
H        0.89700000      -0.22270000       1.45130000
H       -0.17940000       0.75120000      -1.10990000
H       -0.26750000      -3.41930000       1.00210000
H       -0.88740000      -3.83860000      -0.59230000
H        0.38720000      -2.61600000      -0.43250000
H       -3.46480000      -2.97300000       0.62920000
H       -4.51900000      -0.47270000       0.54680000
H       -1.88500000       2.10760000       0.27420000
H       -2.84450000       1.75740000      -1.17970000
H       -3.62980000       1.84290000       0.40890000
