20
Properties=species:S:1:pos:R:3 gdb_64308=T pbc="F F F"
C       -0.05380000       1.53820000      -0.03620000
C       -0.01220000       0.00690000       0.00540000
C       -1.44480000      -0.56320000       0.09100000
C        0.70940000      -0.52190000      -1.24650000
N        0.94190000      -1.95870000      -1.15840000
C        1.44370000      -2.44310000       0.01060000
C        1.40880000      -1.75430000       1.17920000
C        0.73940000      -0.46630000       1.27980000
O        0.68420000       0.18340000       2.31120000
H        0.94990000       1.96010000      -0.15430000
H       -0.67390000       1.89000000      -0.86790000
H       -0.46320000       1.92160000       0.89970000
H       -2.04200000      -0.22430000      -0.76340000
H       -1.44500000      -1.65670000       0.09240000
H       -1.93150000      -0.21830000       1.00730000
H        0.11510000      -0.31520000      -2.14270000
H        1.67240000       0.00530000      -1.35140000
H        1.21310000      -2.43060000      -2.00560000
H        1.86350000      -3.44370000      -0.04380000
H        1.82110000      -2.18380000       2.08300000
