14
Properties=species:S:1:pos:R:3 gdb_23928=T pbc="F F F"
C        0.13880000      -3.75060000      -0.01950000
C        0.07400000      -2.54300000      -0.01210000
C        0.00650000      -1.18870000      -0.00380000
C       -0.06550000       0.02520000       0.00380000
C       -0.12040000       1.42350000       0.01210000
C       -1.20230000       2.29790000       0.03130000
C       -0.69210000       3.61440000       0.03170000
C        0.68630000       3.52440000       0.01290000
N        1.02320000       2.20430000       0.00120000
H        0.19090000      -4.81070000      -0.02600000
H       -2.23750000       1.99590000       0.04350000
H       -1.26400000       4.52900000       0.04430000
H        1.44430000       4.29120000       0.00690000
H        1.95730000       1.83240000      -0.01320000
