18
Properties=species:S:1:pos:R:3 gdb_17580=T pbc="F F F"
C       -0.00680000       1.52200000       0.05750000
C       -0.01850000       0.02060000       0.02240000
C        1.16710000      -0.83770000      -0.35930000
C        0.59470000      -0.98220000       1.03330000
C        1.35290000      -0.70160000       2.29900000
C       -0.68020000      -1.79860000       0.93650000
O       -1.79680000      -0.97190000       1.30540000
C       -1.26230000      -0.84670000      -0.02310000
H        0.96640000       1.90520000       0.38160000
H       -0.21210000       1.94750000      -0.93200000
H       -0.76560000       1.89800000       0.75140000
H        1.06260000      -1.63710000      -1.08900000
H        2.11890000      -0.31560000      -0.41880000
H        2.05050000       0.13230000       2.16880000
H        0.66600000      -0.44320000       3.11140000
H        1.93990000      -1.57180000       2.61580000
H       -0.81680000      -2.87140000       1.01530000
H       -1.94570000      -1.02520000      -0.84580000
