23
Properties=species:S:1:pos:R:3 gdb_106553=T pbc="F F F"
C       -0.68170000       1.82020000      -0.31810000
C       -0.49430000       0.30000000      -0.24890000
C       -1.78920000      -0.45720000      -0.08680000
C       -3.07430000      -0.39270000      -0.97250000
C       -3.41250000      -1.42890000       0.13520000
C       -1.97750000      -2.02010000      -0.05390000
C       -1.61450000      -2.89970000      -1.24320000
C       -2.78650000      -0.39780000       1.12450000
O       -2.39260000      -0.73650000       2.42460000
H        0.28000000       2.33070000      -0.42570000
H       -1.30790000       2.10360000      -1.17070000
H       -1.16210000       2.20050000       0.58910000
H        0.02170000      -0.05080000      -1.15260000
H        0.16210000       0.04950000       0.59540000
H       -3.63760000       0.54480000      -0.94670000
H       -2.99470000      -0.76490000      -1.99280000
H       -4.34550000      -1.98200000       0.25570000
H       -1.56550000      -2.49780000       0.84580000
H       -1.97800000      -2.51510000      -2.19860000
H       -0.52670000      -3.00620000      -1.32290000
H       -2.02970000      -3.90540000      -1.11370000
H       -3.34060000       0.53960000       1.22200000
H       -1.93100000      -1.58080000       2.41050000
