22
Properties=species:S:1:pos:R:3 gdb_63182=T pbc="F F F"
C       -0.26380000       1.55340000       0.00120000
C       -0.06970000       0.04890000      -0.02690000
C       -1.13710000      -0.71730000       0.73350000
C        0.57900000      -0.61420000      -1.19520000
C        1.14870000       0.14010000      -2.38870000
O        2.08490000       1.14400000      -2.03310000
C        3.07000000       0.62700000      -1.15280000
C        2.46030000       0.30220000       0.20910000
N        1.27280000      -0.55900000       0.10530000
H        0.46220000       2.08470000      -0.61390000
H       -1.26640000       1.80030000      -0.36470000
H       -0.19570000       1.93130000       1.02900000
H       -2.12860000      -0.54810000       0.29780000
H       -0.92690000      -1.78940000       0.71960000
H       -1.17210000      -0.39450000       1.78060000
H        0.23500000      -1.61480000      -1.46150000
H        1.63320000      -0.58800000      -3.06110000
H        0.35730000       0.64040000      -2.95700000
H        3.52740000      -0.27520000      -1.59170000
H        3.84660000       1.39160000      -1.06060000
H        3.20510000      -0.21920000       0.82340000
H        2.21560000       1.23540000       0.72960000
