18
Properties=species:S:1:pos:R:3 gdb_91306=T pbc="F F F"
C       -0.06990000       1.58120000       0.13890000
N        0.08620000       0.14630000       0.15000000
C       -1.12230000      -0.70700000       0.23520000
C       -0.41350000      -1.57840000       1.28950000
O        0.49560000      -2.55650000       0.74670000
C        1.64550000      -1.67320000       0.92770000
C        2.49440000      -1.53620000      -0.23780000
C        3.23200000      -1.42490000      -1.18000000
C        0.69750000      -0.50500000       1.31730000
H        0.91340000       2.06190000       0.15870000
H       -0.56980000       1.88750000      -0.78600000
H       -0.66310000       1.97170000       0.98870000
H       -1.99490000      -0.18510000       0.66070000
H       -1.40900000      -1.19820000      -0.70010000
H       -0.98260000      -1.95680000       2.14000000
H        2.23820000      -2.02090000       1.78600000
H        3.87200000      -1.32290000      -2.02130000
H        0.97010000       0.13170000       2.16200000
