21
Properties=species:S:1:pos:R:3 gdb_111442=T pbc="F F F"
O        0.13570000       1.39380000      -0.04280000
C        0.06990000      -0.02190000       0.04200000
C       -1.37010000      -0.54630000       0.02650000
C       -2.17760000      -0.14200000      -1.21920000
C       -1.75390000      -0.60800000      -2.59630000
C       -2.78900000      -1.38890000      -1.82510000
C       -2.36970000      -2.58020000      -0.98180000
C       -0.91670000      -2.98090000      -0.91840000
C       -1.49170000      -2.07300000       0.14530000
H       -0.23660000       1.64260000      -0.89530000
H        0.65220000      -0.49470000      -0.76370000
H        0.55500000      -0.28860000       0.98690000
H       -1.87830000      -0.10400000       0.89200000
H       -2.74710000       0.77970000      -1.16220000
H       -2.10740000      -0.02080000      -3.43790000
H       -0.76770000      -1.02850000      -2.75270000
H       -3.80690000      -1.38720000      -2.19760000
H       -3.11890000      -3.34430000      -0.80920000
H       -0.70060000      -4.00040000      -0.61540000
H       -0.21770000      -2.59830000      -1.65230000
H       -1.57690000      -2.48320000       1.14610000
