21
Properties=species:S:1:pos:R:3 gdb_118688=T pbc="F F F"
C        0.07640000       1.58130000      -0.02080000
C        0.28380000       0.06510000      -0.04840000
C        0.52910000      -0.52760000       1.34650000
C        0.68540000      -2.03300000       1.32340000
O       -0.47360000      -2.76270000       0.99690000
C        2.00430000      -2.67470000       0.91300000
O        3.12250000      -1.88100000       0.65670000
C        1.51670000      -2.75400000       2.34990000
O        2.21670000      -1.95880000       3.27480000
H        0.95380000       2.09130000       0.39220000
H       -0.09760000       1.97940000      -1.02540000
H       -0.78500000       1.85210000       0.59980000
H       -0.59940000      -0.40910000      -0.49760000
H        1.13750000      -0.18350000      -0.68990000
H        1.42200000      -0.07290000       1.78440000
H       -0.30730000      -0.28180000       2.01300000
H       -0.61260000      -2.68040000       0.04680000
H        1.96310000      -3.56680000       0.29370000
H        3.39290000      -1.51720000       1.51170000
H        1.11230000      -3.68750000       2.73300000
H        2.87480000      -2.51830000       3.70160000
