14
Properties=species:S:1:pos:R:3 gdb_26619=T pbc="F F F"
N       -0.02120000       1.41210000       0.15330000
C       -0.03330000       0.02960000       0.05670000
C       -1.17180000      -0.73830000       0.02650000
O       -2.37590000      -0.11610000       0.02450000
N       -1.19240000      -2.09830000      -0.00520000
C       -0.04580000      -2.70330000      -0.01660000
N        1.13570000      -2.03750000      -0.00650000
C        1.24710000      -0.63650000       0.01580000
O        2.33820000      -0.08220000      -0.00680000
H        0.86870000       1.80180000      -0.12920000
H       -0.82260000       1.87580000      -0.24830000
H       -3.04350000      -0.81360000      -0.00660000
H        0.00220000      -3.78680000      -0.03630000
H        2.01310000      -2.53910000      -0.03260000
