17
Properties=species:S:1:pos:R:3 gdb_85306=T pbc="F F F"
C       -0.25270000       1.55130000       0.14290000
C        0.07660000       0.07220000       0.00690000
O        0.92850000      -0.09390000      -1.16240000
C        2.18200000      -0.59870000      -1.02540000
O        2.90000000      -0.73040000      -1.97560000
C        2.52640000      -0.99410000       0.40380000
C        1.38990000      -1.88070000       0.95490000
C        0.77290000      -0.49730000       1.23920000
O        2.10740000       0.08640000       1.28410000
H        0.64590000       2.10790000       0.42050000
H       -0.63330000       1.94120000      -0.80380000
H       -1.01550000       1.70200000       0.91350000
H       -0.83100000      -0.50720000      -0.20290000
H        3.57530000      -1.26860000       0.50550000
H        0.87400000      -2.55970000       0.27290000
H        1.68610000      -2.39510000       1.86930000
H        0.19870000      -0.32720000       2.15330000
