13
Properties=species:S:1:pos:R:3 gdb_20772=T pbc="F F F"
C        0.06960000       1.49580000       0.03930000
C       -0.01190000       0.00190000       0.01080000
N       -0.13030000      -0.54480000      -1.14760000
O       -0.20680000      -1.95850000      -1.16820000
C       -0.15290000      -2.62700000      -0.00880000
N       -0.03700000      -2.15580000       1.16940000
C        0.04530000      -0.76030000       1.27730000
N        0.16390000      -0.13000000       2.38040000
H        1.00300000       1.80430000       0.51870000
H        0.01280000       1.89860000      -0.97260000
H       -0.74170000       1.89690000       0.65350000
H       -0.22380000      -3.69720000      -0.19360000
H        0.18740000      -0.80500000       3.14900000
