22
Properties=species:S:1:pos:R:3 gdb_59505=T pbc="F F F"
C        0.56000000       1.19790000       0.39660000
C        0.15900000      -0.25840000       0.68140000
C        0.40130000      -0.61910000       2.15490000
C       -1.29640000      -0.46230000       0.29050000
C       -1.68640000      -0.77050000      -1.11530000
N       -1.90230000      -1.75460000      -0.06060000
C       -1.11390000      -2.97450000      -0.08320000
C       -1.32870000      -3.75600000       1.20290000
O       -0.49690000      -4.45550000       1.72030000
H        1.60760000       1.37240000       0.66130000
H        0.42870000       1.44920000      -0.66040000
H       -0.05040000       1.89380000       0.98410000
H        0.78930000      -0.90320000       0.05650000
H        0.19290000      -1.67310000       2.35880000
H        1.44170000      -0.42640000       2.43590000
H       -0.23710000      -0.01680000       2.81190000
H       -1.98000000       0.15890000       0.87130000
H       -2.58210000      -0.34660000      -1.56270000
H       -0.87250000      -0.95030000      -1.81790000
H       -1.50010000      -3.60510000      -0.89830000
H       -0.03450000      -2.85610000      -0.25300000
H       -2.34870000      -3.63340000       1.63010000
