21
Properties=species:S:1:pos:R:3 gdb_94217=T pbc="F F F"
C       -0.03610000       1.55900000      -0.05620000
C        0.06490000       0.04310000      -0.01140000
C        1.08790000      -0.68950000      -0.92530000
C        1.37970000      -1.67310000       0.23940000
C        0.74520000      -0.63780000       1.21590000
O        1.70950000       0.25180000       1.74690000
C       -0.17470000      -1.16140000       2.33480000
C        0.58850000      -1.82990000       3.38300000
C        1.28370000      -2.35050000       4.21590000
H        0.93730000       2.01730000       0.13280000
H       -0.39160000       1.89040000      -1.03810000
H       -0.73660000       1.93900000       0.69570000
H       -0.92660000      -0.40580000      -0.14690000
H        0.71310000      -1.11110000      -1.86060000
H        1.95050000      -0.05480000      -1.14360000
H        0.78950000      -2.59140000       0.16850000
H        2.42180000      -1.93430000       0.43590000
H        2.17810000      -0.22270000       2.44520000
H       -0.72360000      -0.31280000       2.76270000
H       -0.91820000      -1.84780000       1.91330000
H        1.86570000      -2.82720000       4.96550000
