17
Properties=species:S:1:pos:R:3 gdb_3165=T pbc="F F F"
C        0.21440000       1.53590000       0.00820000
C        1.32690000       0.51510000      -0.00780000
C       -0.11340000       0.06750000       0.00350000
C       -0.69480000      -0.62730000       1.24760000
C       -1.39270000      -1.83440000       0.67140000
C       -1.40530000      -1.82730000      -0.66020000
C       -0.71840000      -0.61410000      -1.23660000
H        0.04660000       2.09490000       0.92370000
H        0.02920000       2.10460000      -0.89790000
H        1.89390000       0.39170000      -0.92550000
H        1.91120000       0.38200000       0.89760000
H        0.08290000      -0.89960000       1.97320000
H       -1.40440000       0.01680000       1.78770000
H       -1.84450000      -2.59650000       1.29700000
H       -1.86900000      -2.58280000      -1.28510000
H       -1.43810000       0.03570000      -1.75630000
H        0.04530000      -0.87860000      -1.97970000
