12
Properties=species:S:1:pos:R:3 gdb_133427=T pbc="F F F"
F        0.02050000       0.03060000       0.00360000
C       -0.03770000       1.34350000       0.01110000
C       -1.21560000       1.99820000       0.02990000
C       -1.16230000       3.42820000       0.03650000
F       -2.31750000       4.08080000       0.05500000
N       -0.09180000       4.13260000       0.02610000
N        1.06860000       3.42920000       0.00720000
C        1.24690000       2.04570000      -0.00220000
N        2.35510000       1.40500000      -0.02010000
H       -2.16290000       1.47550000       0.03970000
H        1.88990000       4.01450000      -0.00060000
H        3.15890000       2.03450000      -0.02740000
