15
Properties=species:S:1:pos:R:3 gdb_2474=T pbc="F F F"
O        0.01990000       0.05280000      -0.03170000
C        0.01730000       1.25370000      -0.00200000
C       -1.19430000       2.21570000       0.01590000
C       -0.40550000       3.53890000       0.05260000
C        0.70070000       3.28430000      -1.01250000
C        1.19260000       2.22040000       0.02780000
C        0.69030000       3.23150000       1.11470000
H       -1.81380000       2.08870000      -0.87730000
H       -1.82240000       2.04480000       0.89570000
H       -0.97770000       4.46560000       0.07280000
H        0.39990000       2.93640000      -2.00500000
H        1.40420000       4.11500000      -1.10060000
H        2.19070000       1.78840000       0.02200000
H        1.39260000       4.05670000       1.25070000
H        0.37980000       2.83490000       2.08570000
