17
Properties=species:S:1:pos:R:3 gdb_7602=T pbc="F F F"
C        0.01810000       1.54360000      -0.07690000
C        0.02640000       0.03430000      -0.02890000
C        1.32720000      -0.72750000      -0.20180000
C        0.62680000      -0.71790000       1.11870000
N        1.27090000       0.08100000       2.22080000
H        1.55890000       0.99240000       1.84950000
H        0.60080000       0.25690000       2.97350000
H        2.09040000      -0.38400000       2.62080000
C       -1.26270000      -0.70360000      -0.58920000
O       -2.03360000       0.03360000      -1.21220000
O       -1.28320000      -1.91850000      -0.30640000
H        0.98710000       2.01760000       0.16250000
H       -0.25430000       1.84380000      -1.09070000
H       -0.75270000       1.95950000       0.58080000
H        1.28840000      -1.66530000      -0.74330000
H        2.25420000      -0.16300000      -0.29560000
H        0.10390000      -1.59560000       1.48090000
