23
Properties=species:S:1:pos:R:3 gdb_115391=T pbc="F F F"
C        0.05710000       1.36040000      -0.09590000
O       -0.00620000      -0.02570000       0.14360000
C       -1.30720000      -0.58740000       0.07060000
C       -1.79760000      -0.75980000      -1.37610000
C       -3.15430000      -1.48150000      -1.42650000
C       -3.11420000      -2.83700000      -0.70220000
O       -2.35630000      -3.80390000      -1.42620000
C       -2.60280000      -2.66590000       0.73770000
C       -1.25150000      -1.93720000       0.78810000
H        1.08900000       1.67120000       0.08670000
H       -0.20650000       1.62870000      -1.12940000
H       -0.60500000       1.92090000       0.58340000
H       -2.01640000       0.07010000       0.60640000
H       -1.87540000       0.21050000      -1.87690000
H       -1.03740000      -1.32890000      -1.92850000
H       -3.91970000      -0.85270000      -0.95260000
H       -3.46500000      -1.63770000      -2.46430000
H       -4.12530000      -3.25730000      -0.67530000
H       -1.44300000      -3.50390000      -1.46960000
H       -3.34730000      -2.09560000       1.30880000
H       -2.52290000      -3.65040000       1.20920000
H       -0.46770000      -2.54390000       0.31430000
H       -0.93020000      -1.78480000       1.82290000
