15
Properties=species:S:1:pos:R:3 gdb_9012=T pbc="F F F"
C        0.00530000       1.49740000      -0.01040000
C        0.00500000       0.04260000       0.03340000
C        0.00890000      -1.16030000       0.06730000
C       -0.00490000      -2.61470000       0.11490000
C       -1.42590000      -3.19580000      -0.10550000
O       -2.00090000      -2.82470000      -1.33680000
C       -1.39000000      -4.66720000       0.04850000
N       -1.33770000      -5.81770000       0.14250000
H        0.84480000       1.87590000      -0.60360000
H       -0.91770000       1.87820000      -0.46090000
H        0.08730000       1.92680000       0.99400000
H        0.66360000      -3.03730000      -0.64740000
H        0.36910000      -2.97740000       1.08060000
H       -2.09270000      -2.78950000       0.66150000
H       -1.44020000      -3.15430000      -2.04900000
