19
Properties=species:S:1:pos:R:3 gdb_77314=T pbc="F F F"
C       -0.00300000       1.56200000       0.02310000
C       -0.00680000       0.02600000      -0.03020000
C        0.74530000      -0.55590000      -1.26240000
C        2.19530000      -0.79640000      -0.73650000
C        1.99420000      -1.28560000       0.70220000
C        0.74870000      -0.54200000       1.18690000
O        0.41230000      -0.38760000       2.33240000
C        0.13930000      -1.79910000      -1.72960000
C       -0.35690000      -2.83260000      -2.09270000
H        1.01190000       1.96670000      -0.05640000
H       -0.59770000       1.97920000      -0.79480000
H       -0.42610000       1.90000000       0.97240000
H       -1.04110000      -0.32570000       0.00850000
H        0.75190000       0.16420000      -2.08770000
H        2.74450000      -1.49820000      -1.36580000
H        2.73840000       0.15470000      -0.74280000
H        1.76120000      -2.35820000       0.71620000
H        2.83850000      -1.12390000       1.37520000
H       -0.80000000      -3.73850000      -2.42540000
