21
Properties=species:S:1:pos:R:3 gdb_103511=T pbc="F F F"
C       -0.11400000       1.55070000      -0.12580000
C        0.04620000       0.03070000      -0.01690000
C        0.76030000      -0.48230000       1.25810000
C        2.22250000      -0.00370000       1.32760000
C        0.01660000      -0.12900000       2.54280000
C       -0.31510000      -1.19840000       3.27050000
C        0.08890000      -2.44610000       2.55800000
O       -0.56960000      -2.60500000       1.27510000
C        0.73120000      -2.01920000       1.30530000
H        0.85010000       2.06900000      -0.12490000
H       -0.62350000       1.81190000      -1.05850000
H       -0.71250000       1.95590000       0.69630000
H       -0.93700000      -0.44760000      -0.05880000
H        0.60800000      -0.33360000      -0.88730000
H        2.28490000       1.08190000       1.44430000
H        2.74040000      -0.45750000       2.17850000
H        2.76310000      -0.27610000       0.41330000
H       -0.21520000       0.89760000       2.80420000
H       -0.83390000      -1.18940000       4.22130000
H        0.31130000      -3.37440000       3.07500000
H        1.51250000      -2.58760000       0.80420000
