17
Properties=species:S:1:pos:R:3 gdb_69407=T pbc="F F F"
C        0.09510000       1.51540000       0.05440000
C       -0.01550000       0.01250000      -0.00900000
C       -0.86700000      -0.77130000       0.93710000
N        0.59520000      -0.80380000       1.07570000
C        1.23210000      -1.97460000       0.42930000
C        0.95270000      -1.83000000      -1.06230000
C        0.27130000      -0.70910000      -1.28580000
C        2.67750000      -1.99850000       0.71670000
N        3.81500000      -2.03840000       0.91320000
H        1.07870000       1.85080000      -0.28940000
H       -0.66620000       1.98450000      -0.57840000
H       -0.04620000       1.86710000       1.07900000
H       -1.37400000      -0.26950000       1.75740000
H       -1.37650000      -1.65050000       0.54870000
H        0.80670000      -2.90080000       0.83820000
H        1.26500000      -2.56750000      -1.79020000
H       -0.05430000      -0.34560000      -2.25290000
