19
Properties=species:S:1:pos:R:3 gdb_13878=T pbc="F F F"
C        0.22390000       1.47670000      -0.29700000
C       -0.01120000      -0.00560000       0.02700000
C        0.74090000      -0.41500000       1.29860000
C       -1.51550000      -0.30670000       0.15080000
C       -2.32990000      -0.06580000      -1.15160000
O       -3.05120000      -1.30540000      -1.36040000
C       -2.60110000      -2.14080000      -0.39570000
N       -1.77540000      -1.72820000       0.47010000
H        1.29320000       1.68510000      -0.40250000
H       -0.26350000       1.78420000      -1.22840000
H       -0.15950000       2.11620000       0.50720000
H        0.36890000      -0.61110000      -0.80860000
H        0.40110000       0.17510000       2.15850000
H        0.57320000      -1.46880000       1.52880000
H        1.81640000      -0.24480000       1.18420000
H       -1.91450000       0.29950000       0.97620000
H       -3.05950000       0.74350000      -1.08120000
H       -1.69310000       0.10210000      -2.02670000
H       -3.01210000      -3.14330000      -0.44760000
