21
Properties=species:S:1:pos:R:3 gdb_59603=T pbc="F F F"
C        0.04730000       1.49930000       0.07570000
C       -0.02520000      -0.03370000       0.11200000
C        0.58910000      -0.58250000       1.40720000
C       -1.46750000      -0.51130000      -0.12540000
C       -1.67230000      -2.04660000      -0.19710000
C       -2.33390000      -2.39920000       1.13870000
C       -2.84100000      -1.06790000       1.68120000
O       -3.56730000      -0.87590000       2.61250000
O       -2.32730000      -0.05060000       0.94010000
H        1.07980000       1.84280000       0.19090000
H       -0.33500000       1.89430000      -0.87150000
H       -0.54850000       1.93260000       0.88450000
H        0.55220000      -0.42560000      -0.73800000
H        0.61190000      -1.67680000       1.42660000
H        1.62080000      -0.23440000       1.51390000
H        0.03180000      -0.23530000       2.28290000
H       -1.83860000      -0.03120000      -1.03690000
H       -2.33310000      -2.29410000      -1.03150000
H       -0.72860000      -2.57030000      -0.36280000
H       -3.16430000      -3.10300000       1.06070000
H       -1.63120000      -2.81050000       1.87000000
