17
Properties=species:S:1:pos:R:3 gdb_28876=T pbc="F F F"
C       -0.05840000       1.50680000       0.05460000
C       -0.01020000       0.00210000       0.00870000
C        0.07940000      -0.65540000      -1.22910000
N        0.17870000       0.03390000      -2.43990000
C        0.12520000      -2.05680000      -1.21630000
O        0.20380000      -2.67480000      -2.43140000
C        0.08520000      -2.73090000      -0.00380000
C       -0.00330000      -1.98060000       1.16440000
N       -0.05200000      -0.64960000       1.17810000
H        0.80100000       1.95090000      -0.46210000
H       -0.96330000       1.90180000      -0.42850000
H       -0.05870000       1.83470000       1.09440000
H       -0.31250000       0.91560000      -2.46360000
H       -0.03720000      -0.53850000      -3.24390000
H        0.20960000      -3.62870000      -2.30310000
H        0.11920000      -3.81620000       0.02960000
H       -0.03520000      -2.47810000       2.13020000
