20
Properties=species:S:1:pos:R:3 gdb_39132=T pbc="F F F"
C        0.00660000       1.47830000       0.01760000
C        1.22920000       0.63140000      -0.00490000
N       -0.11370000       0.01500000      -0.01920000
C       -0.30820000      -0.52130000      -1.38300000
C        0.77180000       0.09960000      -2.29740000
C        1.92950000       0.41640000      -1.33180000
C        3.00210000       1.43030000      -1.79700000
O        4.02500000       0.41630000      -1.82900000
C        3.12130000      -0.57840000      -1.31350000
H       -0.31220000       1.93200000       0.95140000
H       -0.24940000       2.05350000      -0.86900000
H        1.81290000       0.50650000       0.90380000
H       -0.18380000      -1.60800000      -1.32050000
H       -1.32850000      -0.32470000      -1.72600000
H        1.07340000      -0.56970000      -3.10710000
H        0.41380000       1.02150000      -2.76740000
H        2.83530000       1.87950000      -2.78450000
H        3.23450000       2.22720000      -1.07810000
H        3.42040000      -0.92720000      -0.31570000
H        3.03420000      -1.44500000      -1.98150000
