17
Properties=species:S:1:pos:R:3 gdb_109523=T pbc="F F F"
C       -1.13350000       0.98290000       0.51180000
C        0.10300000       0.26710000      -0.02170000
N        0.77330000      -0.44920000       1.07110000
C        0.38450000      -1.83240000       1.36460000
C       -0.61680000      -2.52800000       0.60570000
C       -1.48000000      -3.11000000       0.00470000
C        1.73090000      -1.50340000       0.74740000
C        2.00080000      -1.88260000      -0.61850000
N        2.25820000      -2.16410000      -1.71030000
H       -0.86950000       1.65190000       1.33550000
H       -1.59810000       1.57370000      -0.28290000
H       -1.87380000       0.26370000       0.87480000
H       -0.17010000      -0.39880000      -0.85130000
H        0.82930000       0.99000000      -0.40750000
H        0.39460000      -2.06830000       2.42660000
H       -2.22980000      -3.63180000      -0.53790000
H        2.60920000      -1.53460000       1.38750000
