20
Properties=species:S:1:pos:R:3 gdb_94326=T pbc="F F F"
C       -0.62800000       1.18300000       0.03560000
C        0.13360000      -0.12530000      -0.10410000
C        1.53330000      -0.11130000      -0.79330000
C        2.07840000      -1.06200000       0.31260000
C        0.82380000      -0.73820000       1.13030000
C        0.78760000      -0.20140000       2.52130000
C        0.19950000      -1.57900000       2.22980000
C       -1.22390000      -1.75710000       2.24360000
N       -2.37380000      -1.89080000       2.22890000
H       -0.00800000       1.95490000       0.50480000
H       -0.93790000       1.55450000      -0.94690000
H       -1.53230000       1.05530000       0.64010000
H       -0.51060000      -0.87870000      -0.57180000
H        1.58170000      -0.47020000      -1.82320000
H        1.99480000       0.87900000      -0.74470000
H        2.11130000      -2.10690000      -0.01000000
H        3.04000000      -0.80400000       0.76360000
H        1.70510000      -0.18330000       3.10070000
H        0.08770000       0.59390000       2.75320000
H        0.76330000      -2.44060000       2.57370000
