18
Properties=species:S:1:pos:R:3 gdb_19876=T pbc="F F F"
C       -0.20840000       1.59820000       0.03060000
C        0.04470000       0.10480000       0.07950000
C        1.34350000      -0.59790000      -0.23630000
C        2.70220000       0.11240000      -0.13060000
C        2.92260000       0.40460000       1.35090000
O        2.00900000       1.34740000       1.92350000
C        1.74530000      -0.05340000       2.10860000
C        0.74890000      -0.68810000       1.16850000
H        0.67150000       2.18280000       0.28680000
H       -0.54230000       1.87820000      -0.97540000
H       -1.00400000       1.87750000       0.73010000
H       -0.80620000      -0.45470000      -0.30800000
H        1.29590000      -1.44670000      -0.91090000
H        3.49210000      -0.55990000      -0.48320000
H        2.76670000       1.02590000      -0.73240000
H        3.93140000       0.44360000       1.75720000
H        1.79680000      -0.39360000       3.13950000
H        0.27400000      -1.59570000       1.52540000
