14
Properties=species:S:1:pos:R:3 gdb_47335=T pbc="F F F"
O       -0.02880000      -0.03320000       0.14630000
C       -0.02650000       1.16480000      -0.03380000
C       -1.31320000       1.98400000      -0.09000000
O       -1.16530000       3.16530000      -0.85650000
C       -0.14890000       4.01340000      -0.38950000
C        1.17680000       3.28830000      -0.24400000
C        1.22370000       1.94810000      -0.13570000
C        2.35450000       4.09230000      -0.21180000
N        3.28440000       4.78230000      -0.18630000
H       -2.10010000       1.38880000      -0.55660000
H       -1.62380000       2.21180000       0.94530000
H       -0.05230000       4.82400000      -1.11740000
H       -0.41380000       4.47230000       0.58060000
H        2.15820000       1.40380000      -0.05490000
