19
Properties=species:S:1:pos:R:3 gdb_90266=T pbc="F F F"
O       -0.13010000       1.45180000       0.01820000
C        0.00680000       0.04750000       0.01410000
C        0.35280000      -0.61050000       1.39580000
C       -1.09090000      -1.09480000       1.48320000
C       -1.81590000      -2.23650000       2.17620000
O       -3.00000000      -1.41470000       2.34250000
C       -2.30230000      -0.22030000       1.90770000
C       -2.60170000       0.17430000       0.44290000
C       -1.38060000      -0.67550000       0.00140000
H        0.74070000       1.83710000       0.15710000
H        0.66810000      -0.27760000      -0.79970000
H        1.07450000      -1.42740000       1.28850000
H        0.70130000       0.06690000       2.18230000
H       -2.01350000      -3.14260000       1.58970000
H       -1.39180000      -2.52610000       3.14920000
H       -2.28130000       0.55090000       2.68460000
H       -3.56630000      -0.20640000       0.10010000
H       -2.52080000       1.23850000       0.21620000
H       -1.50800000      -1.39880000      -0.80560000
