19
Properties=species:S:1:pos:R:3 gdb_52980=T pbc="F F F"
C        0.00030000       1.45530000      -0.02290000
C       -0.00760000      -0.00040000      -0.00480000
C       -0.01890000      -1.20610000       0.00600000
C       -0.00270000      -2.63810000       0.03950000
C       -0.44600000      -3.41020000      -1.19100000
C       -1.29880000      -3.47130000       0.05330000
C       -1.01440000      -4.61630000       0.96300000
C        0.23270000      -4.58060000       1.43740000
C        0.98400000      -3.34850000       0.98410000
H        0.94830000       1.85040000       0.35920000
H       -0.13030000       1.84330000      -1.03960000
H       -0.80280000       1.87200000       0.59590000
H       -0.80580000      -2.81210000      -2.02060000
H        0.11010000      -4.30080000      -1.46710000
H       -2.27130000      -2.99270000       0.04660000
H       -1.74350000      -5.39230000       1.16700000
H        0.68680000      -5.33660000       2.06790000
H        1.92790000      -3.59260000       0.48100000
H        1.24110000      -2.69910000       1.83020000
