14
Properties=species:S:1:pos:R:3 gdb_21054=T pbc="F F F"
C       -0.04910000       1.42470000      -0.02840000
N        0.01940000      -0.01510000       0.00670000
N        0.11280000      -0.74620000      -1.16430000
C        0.12020000      -1.97460000      -0.69510000
O        0.18900000      -3.03460000      -1.51380000
N        0.06240000      -2.11490000       0.65840000
C        0.00490000      -0.85210000       1.06070000
N       -0.13370000      -0.43270000       2.37250000
H        0.94510000       1.88010000      -0.10660000
H       -0.63960000       1.72400000      -0.89600000
H       -0.54240000       1.78140000       0.87920000
H        0.18300000      -3.81510000      -0.94750000
H       -0.03060000      -1.21100000       3.00960000
H        0.46870000       0.33480000       2.63820000
