15
Properties=species:S:1:pos:R:3 gdb_2513=T pbc="F F F"
C       -0.00410000       1.41860000       0.01090000
N       -0.05010000      -0.02560000       0.11610000
C        0.63890000      -0.66790000       1.12420000
C        0.59210000      -2.16850000       0.96950000
O        1.13330000      -2.95590000       1.70130000
N        1.19120000       0.00160000       2.06080000
C        1.84460000      -0.64180000       3.18670000
H        1.01710000       1.79400000      -0.13950000
H       -0.63540000       1.73530000      -0.82210000
H       -0.37770000       1.86240000       0.93710000
H       -0.17620000      -0.53850000      -0.74170000
H       -0.00160000      -2.51980000       0.09140000
H        2.13740000       0.13410000       3.89990000
H        1.20270000      -1.36550000       3.70270000
H        2.74800000      -1.18610000       2.88460000
