18
Properties=species:S:1:pos:R:3 gdb_9889=T pbc="F F F"
C       -0.24180000       1.44440000       0.05700000
C       -0.05180000      -0.05750000      -0.02040000
C       -1.25380000      -0.83000000      -0.50520000
O       -1.55770000      -0.48670000      -1.86890000
C       -2.78950000      -0.03250000      -2.15820000
O       -3.13020000       0.25930000      -3.26490000
C        1.30820000      -0.60220000      -0.38430000
C        0.79620000      -0.74220000       1.02780000
H        0.66400000       1.93510000       0.42420000
H       -0.47140000       1.86310000      -0.92810000
H       -1.06110000       1.70780000       0.73710000
H       -1.06000000      -1.90730000      -0.48090000
H       -2.13060000      -0.62630000       0.12550000
H       -3.44160000       0.03930000      -1.26470000
H        1.35600000      -1.49190000      -1.00280000
H        2.10250000       0.11130000      -0.57350000
H        1.23550000      -0.12010000       1.79990000
H        0.50310000      -1.72910000       1.37120000
