15
Properties=species:S:1:pos:R:3 gdb_50511=T pbc="F F F"
O        0.54170000      -0.18010000       0.67310000
C        0.18100000       0.90870000       0.32050000
C        1.11710000       1.98970000      -0.21070000
C        1.38970000       3.06300000       0.85830000
O        2.49490000       2.51210000       1.56220000
C        3.19450000       1.64530000       0.68340000
O        2.41180000       1.49500000      -0.48540000
C        4.51830000       2.30150000       0.28170000
O        5.59640000       1.82700000       0.50820000
H       -0.88690000       1.22570000       0.37720000
H        0.69570000       2.41270000      -1.12940000
H        1.64200000       4.02340000       0.39100000
H        0.57050000       3.21390000       1.56670000
H        3.36980000       0.68820000       1.18680000
H        4.38420000       3.28030000      -0.23090000
