17
Properties=species:S:1:pos:R:3 gdb_65413=T pbc="F F F"
C        0.07820000       1.53990000      -0.22150000
C       -0.00090000       0.04730000       0.03810000
N        1.27590000      -0.70220000       0.03960000
C        0.51430000      -0.62270000       1.28250000
C        1.13250000       0.14460000       2.44260000
C        1.95300000      -0.72340000       3.28060000
C        2.61480000      -1.46170000       3.95890000
C       -1.14040000      -0.60360000      -0.57720000
N       -2.04330000      -1.11980000      -1.08410000
H        0.98550000       1.95480000       0.21860000
H        0.10620000       1.73280000      -1.29760000
H       -0.79210000       2.05480000       0.19580000
H        1.17240000      -1.61070000      -0.40490000
H       -0.03260000      -1.51090000       1.59110000
H        1.74260000       0.96700000       2.05720000
H        0.33170000       0.59140000       3.04580000
H        3.20820000      -2.10290000       4.56240000
