18
Properties=species:S:1:pos:R:3 gdb_73889=T pbc="F F F"
C        0.08310000       1.49100000       0.10900000
C        0.01610000       0.00340000      -0.01230000
C       -0.00260000      -0.75890000      -1.13010000
C       -0.03500000      -0.30040000      -2.51580000
O       -0.08430000      -1.04770000      -3.47170000
C        0.01970000      -2.21160000      -0.78100000
N        1.25590000      -2.58710000      -0.03830000
C        0.01490000      -2.28620000       0.70320000
C       -0.02410000      -0.86060000       1.23770000
H        0.99990000       1.78750000       0.63380000
H        0.06490000       2.00270000      -0.85440000
H       -0.75330000       1.86430000       0.71330000
H       -0.02690000       0.80080000      -2.66290000
H       -0.44860000      -2.93900000      -1.43200000
H        1.36480000      -3.59890000      -0.08640000
H       -0.48560000      -3.08240000       1.24280000
H        0.82090000      -0.64440000       1.90290000
H       -0.93980000      -0.66060000       1.81140000
