27
Properties=species:S:1:pos:R:3 gdb_118572=T pbc="F F F"
C       -0.63770000       1.10880000      -0.95040000
C       -0.35350000      -0.36730000      -0.65800000
C        0.28590000      -0.58930000       0.71820000
C        0.60970000      -2.06290000       1.04470000
C        1.85430000      -2.55660000       0.27270000
C        1.92960000      -4.07190000       0.05320000
C        0.76340000      -2.20620000       2.56100000
O        0.95250000      -3.55830000       2.92360000
C        1.11070000      -3.73420000       4.30970000
H        0.28530000       1.69950000      -0.93980000
H       -1.10440000       1.23920000      -1.93180000
H       -1.31200000       1.53910000      -0.20130000
H       -1.28930000      -0.93890000      -0.71280000
H        0.29440000      -0.77260000      -1.44460000
H        1.20640000       0.00740000       0.79380000
H       -0.39550000      -0.18810000       1.48100000
H       -0.25280000      -2.67670000       0.74770000
H        1.88260000      -2.06210000      -0.70540000
H        2.75290000      -2.21380000       0.80440000
H        1.06480000      -4.42510000      -0.52030000
H        2.83000000      -4.33860000      -0.51040000
H        1.94070000      -4.60680000       1.00360000
H        1.61920000      -1.59800000       2.90750000
H       -0.13480000      -1.80920000       3.06570000
H        1.99220000      -3.19580000       4.69350000
H        0.22820000      -3.38390000       4.86920000
H        1.24260000      -4.80340000       4.49360000
