13
Properties=species:S:1:pos:R:3 gdb_129992=T pbc="F F F"
N       -0.01160000       1.30070000       0.27790000
C       -0.02390000      -0.05040000       0.03030000
N       -1.10400000      -0.81660000       0.00280000
C       -0.57120000      -2.04540000      -0.20160000
O       -1.38760000      -3.12180000      -0.31450000
C       -0.92500000      -4.32960000       0.14440000
O       -1.53510000      -5.33310000      -0.04060000
N        0.73750000      -2.12180000      -0.31870000
N        1.08430000      -0.80100000      -0.14840000
H        0.68600000       1.83700000      -0.21720000
H       -0.93380000       1.70720000       0.20840000
H        0.02850000      -4.23150000       0.68440000
H        2.05440000      -0.53640000      -0.14450000
