16
Properties=species:S:1:pos:R:3 gdb_97571=T pbc="F F F"
N       -0.31040000       1.27110000       0.03570000
C       -0.04110000      -0.04380000      -0.11240000
O        1.02770000      -0.49770000      -0.47820000
C       -1.22540000      -1.02000000       0.14120000
O       -0.73470000      -2.33180000       0.11080000
C       -1.92740000      -0.70890000       1.38780000
C       -2.51010000      -0.42870000       2.40540000
C       -3.26230000      -0.14980000       3.62910000
O       -4.65640000       0.01030000       3.41470000
H        0.44490000       1.92940000      -0.06930000
H       -1.14300000       1.56160000       0.52150000
H       -1.93100000      -0.85680000      -0.69360000
H        0.19310000      -2.23040000      -0.16930000
H       -3.05240000      -0.94390000       4.36300000
H       -2.92100000       0.78960000       4.07790000
H       -4.97150000      -0.77840000       2.96050000
