19
Properties=species:S:1:pos:R:3 gdb_39269=T pbc="F F F"
C        0.02370000       1.47140000       0.05840000
C        1.33250000       0.72800000      -0.01560000
O        2.16090000       0.44630000       1.07210000
C        2.40220000      -0.97480000       1.08770000
C        1.09600000      -1.79090000       0.86850000
C       -0.06210000      -0.87600000       1.26060000
C        0.02990000      -0.03240000      -0.00860000
C       -0.03990000      -1.09070000      -1.07930000
O        0.84660000      -2.09520000      -0.52750000
H       -0.29570000       1.90530000       1.00010000
H       -0.23920000       2.05790000      -0.81620000
H        1.86010000       0.79070000      -0.96890000
H        3.13340000      -1.24780000       0.31380000
H        2.82840000      -1.19050000       2.07230000
H        1.15980000      -2.74920000       1.39040000
H       -1.01410000      -1.40960000       1.33090000
H        0.11680000      -0.31790000       2.17850000
H       -1.04030000      -1.52210000      -1.22210000
H        0.34770000      -0.76800000      -2.05090000
