17
Properties=species:S:1:pos:R:3 gdb_60709=T pbc="F F F"
C       -0.24610000       1.09840000       1.22190000
C       -0.13560000       0.35820000      -0.13300000
C        1.13460000      -0.49880000      -0.12180000
O        2.13440000      -0.23160000      -0.73070000
C       -1.29350000      -0.49280000      -0.38610000
C       -2.22340000      -1.23240000      -0.57790000
C       -3.36560000      -2.11510000      -0.82500000
C       -4.10300000      -2.47400000       0.38790000
C       -4.71490000      -2.77550000       1.37560000
H        0.61560000       1.75640000       1.36370000
H       -1.15850000       1.69850000       1.24650000
H       -0.28710000       0.38600000       2.05100000
H       -0.01380000       1.09090000      -0.93840000
H        1.06190000      -1.39870000       0.52910000
H       -4.05000000      -1.63420000      -1.53740000
H       -3.01900000      -3.03110000      -1.32330000
H       -5.25440000      -3.04040000       2.25100000
