15
Properties=species:S:1:pos:R:3 gdb_20927=T pbc="F F F"
C        0.73740000       0.79970000      -0.56690000
C       -0.44690000       0.28480000       0.25730000
N       -0.83170000      -1.06280000      -0.15000000
C       -1.80780000      -1.21230000      -0.92880000
N       -2.29830000      -2.42010000      -1.41710000
C       -3.37390000      -2.14280000      -2.20360000
N       -3.63150000      -0.88420000      -2.29260000
O       -2.63240000      -0.25840000      -1.48620000
H        1.06820000       1.77620000      -0.19840000
H        1.57880000       0.10300000      -0.50690000
H        0.46010000       0.90820000      -1.62020000
H       -0.15410000       0.23510000       1.31240000
H       -1.28210000       0.99450000       0.18680000
H       -1.91490000      -3.31560000      -1.17350000
H       -3.95900000      -2.89610000      -2.70940000
