12
Properties=species:S:1:pos:R:3 gdb_43433=T pbc="F F F"
N       -0.02380000       1.29550000       0.01080000
C       -0.02660000       0.03380000       0.00350000
O        1.11020000      -0.76090000      -0.00660000
C        0.73080000      -2.09500000      -0.01250000
O        1.51670000      -2.98850000      -0.02140000
C       -0.77250000      -2.12330000      -0.00530000
C       -1.19580000      -0.84490000       0.00410000
C       -1.50210000      -3.32570000      -0.00870000
C       -2.10930000      -4.36490000      -0.01180000
H        0.93050000       1.66030000       0.00830000
H       -2.20770000      -0.46990000       0.01120000
H       -2.64210000      -5.28420000      -0.01460000
