19
Properties=species:S:1:pos:R:3 gdb_106069=T pbc="F F F"
C        0.10680000       1.35440000       0.22630000
O        0.00730000      -0.00400000      -0.18920000
C       -1.25400000      -0.50300000      -0.10420000
C       -2.16580000      -0.89760000       1.03450000
C       -3.34820000      -0.12150000       0.45760000
C       -2.60990000      -0.21780000      -0.90990000
O       -2.71380000       0.77040000      -1.87660000
C       -2.65330000      -1.73500000      -1.25890000
C       -1.72280000      -1.91990000      -0.06020000
H        1.15270000       1.64460000       0.10740000
H       -0.52420000       2.00370000      -0.39260000
H       -0.18520000       1.46670000       1.27920000
H       -1.91520000      -1.07350000       2.07220000
H       -4.34930000      -0.56540000       0.51800000
H       -3.37170000       0.91000000       0.82010000
H       -3.59000000       0.72210000      -2.27600000
H       -3.63260000      -2.22850000      -1.25250000
H       -2.13300000      -1.93480000      -2.19940000
H       -1.14640000      -2.79270000       0.21550000
