20
Properties=species:S:1:pos:R:3 gdb_65735=T pbc="F F F"
C       -0.27860000       1.72860000       0.06890000
C        0.11950000       0.25050000       0.00640000
C        1.09860000      -0.08470000      -1.16370000
C        1.98280000      -1.16300000      -0.58820000
C        1.86630000      -1.24930000       0.73550000
C        0.88390000      -0.23520000       1.27190000
N       -1.08830000      -0.59240000      -0.11100000
C       -1.97070000      -0.56070000      -1.13980000
O       -1.92580000       0.18810000      -2.09660000
H        0.61270000       2.35490000       0.17210000
H       -0.80970000       2.01530000      -0.84010000
H       -0.93200000       1.91610000       0.92720000
H        0.55550000      -0.37490000      -2.06540000
H        1.69260000       0.79970000      -1.43230000
H        2.65160000      -1.75950000      -1.19880000
H        2.42580000      -1.91940000       1.37840000
H        1.40620000       0.60550000       1.74800000
H        0.20140000      -0.63110000       2.03510000
H       -1.22330000      -1.31310000       0.58000000
H       -2.77270000      -1.31690000      -1.00960000
