14
Properties=species:S:1:pos:R:3 gdb_44914=T pbc="F F F"
O       -0.03300000       0.01870000      -0.02270000
C        0.02070000       1.20490000      -0.00970000
O       -1.11510000       2.00450000      -0.00160000
C       -0.71080000       3.36720000      -0.01170000
C        0.64070000       3.36060000      -0.73170000
C        1.22270000       2.16610000       0.02900000
N        1.43770000       2.53710000       1.43850000
C        0.56740000       3.31280000       1.93800000
O       -0.54290000       3.81870000       1.33240000
H       -1.51330000       3.96580000      -0.43640000
H        0.50840000       3.15780000      -1.79710000
H        1.20160000       4.28570000      -0.59270000
H        2.12060000       1.70940000      -0.38040000
H        0.64160000       3.66550000       2.96300000
