21
Properties=species:S:1:pos:R:3 gdb_90928=T pbc="F F F"
C       -0.02400000       1.53410000      -0.02770000
C       -0.03070000       0.03550000       0.03140000
C        0.46580000      -1.00840000      -0.95850000
C        1.22090000      -1.75500000       0.14070000
C        0.46080000      -0.88820000       1.19550000
C       -0.79640000      -1.60510000       1.70160000
O       -1.53330000      -0.80160000       2.61530000
C       -1.59000000      -1.90170000       0.39690000
C       -1.01470000      -0.91010000      -0.61310000
H        0.97580000       1.94100000       0.16380000
H       -0.34140000       1.88750000      -1.01470000
H       -0.70190000       1.97880000       0.71220000
H        0.80530000      -0.86220000      -1.97830000
H        1.10210000      -2.84350000       0.20670000
H        2.28810000      -1.52100000       0.12600000
H        1.06000000      -0.44860000       1.99310000
H       -0.55560000      -2.51680000       2.25700000
H       -1.77380000       0.01150000       2.15740000
H       -1.47130000      -2.94100000       0.07260000
H       -2.65690000      -1.73910000       0.57670000
H       -1.64620000      -0.52620000      -1.40760000
