17
Properties=species:S:1:pos:R:3 gdb_93610=T pbc="F F F"
C       -0.15350000       1.57200000       0.14450000
C        0.19880000       0.09800000      -0.04560000
C        1.25180000      -0.25030000      -1.11430000
N        1.86070000      -1.53580000      -0.71350000
C        1.90900000      -1.52930000       0.74970000
C        3.21000000      -1.06180000       1.24770000
N        4.22220000      -0.66600000       1.63990000
C        0.78070000      -0.54070000       1.21740000
O        0.45160000      -0.35030000       2.35270000
H        0.74890000       2.16990000       0.30730000
H       -0.67050000       1.96850000      -0.73370000
H       -0.80080000       1.69620000       1.01630000
H       -0.71750000      -0.47240000      -0.26320000
H        0.84170000      -0.33250000      -2.12230000
H        2.03460000       0.51810000      -1.13720000
H        1.27690000      -2.30600000      -1.01930000
H        1.71630000      -2.52040000       1.17130000
