17
Properties=species:S:1:pos:R:3 gdb_82014=T pbc="F F F"
N       -0.08780000       1.45990000       0.19420000
C       -0.03270000       0.04160000       0.02370000
C       -1.37540000      -0.67980000      -0.01330000
N       -2.06110000      -0.19700000      -1.24020000
C       -1.09290000      -1.31230000      -1.32680000
C        0.28420000      -0.60960000      -1.44630000
N        0.50100000       0.36770000      -2.49420000
C        1.39030000      -1.55320000      -1.38190000
N        2.25500000      -2.31810000      -1.31030000
H        0.80710000       1.88800000      -0.01910000
H       -0.77570000       1.85630000      -0.43840000
H        0.64640000      -0.40290000       0.75470000
H       -1.94470000      -1.05230000       0.82820000
H       -2.99820000      -0.59470000      -1.25450000
H       -1.37610000      -2.28380000      -1.71240000
H        0.79100000      -0.08470000      -3.35600000
H       -0.38830000       0.82760000      -2.67280000
