18
Properties=species:S:1:pos:R:3 gdb_110250=T pbc="F F F"
C        0.13020000       1.48600000      -0.06850000
N        0.03090000       0.02950000       0.05340000
C       -1.17800000      -0.55790000       0.77200000
C       -0.31520000      -1.83890000       0.99220000
C       -0.03330000      -2.74800000      -0.19650000
O        1.01650000      -3.66410000       0.08740000
C        0.64970000      -0.63970000       1.27080000
C       -0.52150000      -0.00080000       2.06450000
O       -0.74080000       0.71850000       2.98660000
H        1.14780000       1.73610000      -0.38330000
H       -0.55500000       1.81230000      -0.85640000
H       -0.09960000       2.04690000       0.84980000
H       -2.18780000      -0.46580000       0.37480000
H       -0.57240000      -2.42350000       1.87870000
H       -0.91750000      -3.36460000      -0.39070000
H        0.17030000      -2.15400000      -1.09300000
H        1.84150000      -3.16900000       0.09720000
H        1.72450000      -0.63760000       1.44990000
