16
Properties=species:S:1:pos:R:3 gdb_66704=T pbc="F F F"
C       -0.03510000       1.47670000       0.02910000
C       -0.01780000      -0.00760000      -0.03170000
C       -0.10210000      -1.01330000      -1.14400000
C        0.81140000      -1.93490000      -0.30630000
C       -0.16430000      -1.95260000       0.81090000
N        0.91520000      -0.90650000       0.78900000
C       -1.14180000      -1.04210000       0.01680000
C       -2.54220000      -0.89860000      -0.02920000
C       -3.74090000      -0.77460000      -0.05340000
H        0.91960000       1.89280000      -0.31000000
H       -0.83180000       1.87060000      -0.60990000
H       -0.21520000       1.81990000       1.05320000
H       -0.30540000      -0.90380000      -2.19990000
H        1.62950000      -2.59710000      -0.56090000
H       -0.30880000      -2.62690000       1.64600000
H       -4.79660000      -0.66690000      -0.07870000
