16
Properties=species:S:1:pos:R:3 gdb_64726=T pbc="F F F"
O       -0.11960000       1.44610000      -0.07590000
C       -0.01840000       0.05520000       0.01580000
C        0.88920000      -0.51480000      -1.09990000
C        2.24510000       0.01590000      -0.98600000
N        3.29660000       0.47700000      -0.85160000
C        0.27640000      -0.59530000       1.42810000
C       -1.07010000      -1.31700000       1.30220000
O       -2.06770000      -0.29730000       1.21220000
C       -1.38130000      -0.65850000       0.02010000
H        0.75340000       1.83090000       0.07030000
H        0.92110000      -1.60860000      -1.05990000
H        0.47820000      -0.22680000      -2.07390000
H        1.15480000      -1.24450000       1.43370000
H        0.32460000       0.11270000       2.25700000
H       -1.37240000      -2.28650000       1.67820000
H       -1.97500000      -0.97120000      -0.83230000
