21
Properties=species:S:1:pos:R:3 gdb_85061=T pbc="F F F"
C       -0.31500000       1.48450000      -0.08330000
C        0.02610000       0.01460000       0.07160000
O        0.75440000      -0.41750000      -1.10510000
C        1.60250000      -1.43180000      -0.79090000
O        2.29930000      -1.96720000      -1.60500000
C        1.49070000      -1.73180000       0.70410000
C        2.77670000      -2.30300000       1.29360000
C        0.91920000      -0.40900000       1.26370000
C        1.99510000       0.61930000       1.62920000
H        0.58620000       2.09290000      -0.18800000
H       -0.93460000       1.63530000      -0.97110000
H       -0.87560000       1.83520000       0.78920000
H       -0.90430000      -0.56990000       0.10610000
H        0.70100000      -2.49430000       0.78440000
H        3.60510000      -1.59380000       1.22080000
H        2.64340000      -2.57080000       2.34600000
H        3.06540000      -3.19950000       0.73960000
H        0.29070000      -0.59220000       2.14120000
H        2.64370000       0.85220000       0.77780000
H        1.54380000       1.55430000       1.97170000
H        2.62920000       0.24610000       2.43780000
