19
Properties=species:S:1:pos:R:3 gdb_37169=T pbc="F F F"
C        0.02960000       1.52830000       0.12210000
C        1.35400000       0.83000000      -0.10620000
C        0.04970000       0.02010000       0.04720000
C        0.09650000      -0.60860000      -1.33340000
C       -0.71680000      -1.14070000      -2.51140000
O        0.16660000      -0.39620000      -3.41160000
C        0.56630000       0.48540000      -2.31420000
C        1.88120000       0.39280000      -1.52220000
C        1.59940000      -1.12860000      -1.39610000
H       -0.09450000       1.93990000       1.11960000
H       -0.45710000       2.12310000      -0.64030000
H        2.08860000       0.85350000       0.69080000
H       -0.14280000      -0.57390000       0.93330000
H       -0.69310000      -2.21660000      -2.71160000
H       -1.74700000      -0.76660000      -2.57820000
H        0.08970000       1.45730000      -2.44640000
H        2.84100000       0.81230000      -1.82930000
H        1.97520000      -1.62720000      -0.50000000
H        1.82370000      -1.70250000      -2.29480000
