21
Properties=species:S:1:pos:R:3 gdb_112666=T pbc="F F F"
C        0.05040000       1.54640000       0.12510000
C       -0.05730000       0.02520000      -0.02040000
C        0.64620000      -0.53080000      -1.26100000
C        0.63420000      -2.07830000      -1.34400000
C        0.99150000      -2.35820000      -2.80690000
O        0.68810000      -3.63780000      -3.28430000
C        0.21560000      -1.26780000      -3.54450000
O       -0.23700000      -1.42130000      -4.65290000
C        0.03050000      -0.07880000      -2.61000000
H        1.09730000       1.86470000       0.18300000
H       -0.40730000       2.06620000      -0.72320000
H       -0.45230000       1.89180000       1.03340000
H        0.36720000      -0.45600000       0.87000000
H       -1.11510000      -0.26990000      -0.05050000
H        1.69500000      -0.20370000      -1.23570000
H        1.32070000      -2.54520000      -0.63410000
H       -0.37270000      -2.46730000      -1.14530000
H        2.06600000      -2.12720000      -2.95030000
H        0.30370000      -3.50140000      -4.16370000
H       -1.04780000       0.10660000      -2.52080000
H        0.46910000       0.82980000      -3.03200000
