17
Properties=species:S:1:pos:R:3 gdb_106866=T pbc="F F F"
O        0.11630000       1.43080000       0.23180000
C        0.06640000       0.03560000      -0.03070000
C       -1.34160000      -0.48330000      -0.05670000
C       -2.06820000      -0.95440000       1.18110000
C       -1.89440000      -1.91690000       0.03540000
N       -2.95380000      -1.63080000      -0.96140000
C       -2.34820000      -0.27100000      -1.19430000
C       -1.22070000      -3.16840000       0.12500000
N       -0.67330000      -4.18790000       0.17430000
H       -0.26400000       1.57930000       1.10420000
H        0.53780000      -0.09340000      -1.01070000
H        0.65940000      -0.54130000       0.69600000
H       -1.43340000      -1.13700000       2.04270000
H       -3.07980000      -0.62560000       1.40050000
H       -2.84380000      -2.21720000      -1.78270000
H       -3.06170000       0.55090000      -1.08520000
H       -1.84710000      -0.18820000      -2.16370000
