16
Properties=species:S:1:pos:R:3 gdb_110694=T pbc="F F F"
O        0.01600000       1.24020000       0.57100000
C        0.04680000       0.06130000      -0.20910000
C       -1.31680000      -0.60090000      -0.22840000
C       -1.58950000      -2.08780000      -0.13730000
C       -0.55240000      -3.05140000       0.31150000
C       -0.19590000      -2.78050000       1.57600000
C       -0.86080000      -1.51960000       1.99050000
O       -0.58680000      -0.79030000       2.91580000
N       -1.86320000      -1.21240000       1.00210000
H       -0.16520000       0.97930000       1.48450000
H        0.30570000       0.36740000      -1.22790000
H        0.82150000      -0.63820000       0.13050000
H       -2.06960000      -0.02690000      -0.76590000
H       -2.44930000      -2.47230000      -0.68070000
H       -0.18970000      -3.86420000      -0.30550000
H        0.55520000      -3.27220000       2.17870000
