15
Properties=species:S:1:pos:R:3 gdb_68088=T pbc="F F F"
O        0.17240000       1.40380000      -0.12580000
C        0.11700000       0.02660000      -0.08030000
C       -1.20590000      -0.82400000      -0.03080000
C       -0.23260000      -1.99370000       0.36960000
O       -0.62510000      -3.20450000       0.90030000
C        0.68790000      -2.02890000      -0.83420000
C        0.91180000      -0.73510000      -1.12230000
C        0.51660000      -0.85260000       1.17920000
O        0.95940000      -0.68660000       2.26910000
H       -0.01820000       1.74820000       0.75370000
H       -1.89120000      -0.52670000       0.77180000
H       -1.71460000      -0.94910000      -0.98840000
H       -0.85250000      -3.07430000       1.82750000
H        1.13260000      -2.92590000      -1.23980000
H        1.59050000      -0.28020000      -1.82890000
