13
Properties=species:S:1:pos:R:3 gdb_11764=T pbc="F F F"
N        0.06530000      -1.15910000      -0.01640000
C        0.04290000      -0.00440000      -0.00110000
C       -0.02760000       1.44160000       0.03120000
C       -0.33340000       2.26750000       1.32690000
C        0.43130000       3.28220000       0.42610000
O        1.25060000       2.15280000      -0.04260000
C       -0.54920000       3.46040000      -0.74890000
C       -0.87310000       2.19780000      -1.02410000
H       -1.37650000       2.46020000       1.57910000
H        0.25420000       1.92770000       2.18130000
H        1.00280000       4.12440000       0.80810000
H       -0.87190000       4.38640000      -1.20010000
H       -1.52650000       1.75360000      -1.75860000
