14
Properties=species:S:1:pos:R:3 gdb_133369=T pbc="F F F"
N       -0.03320000       1.37560000       0.15080000
C       -0.03790000      -0.00550000       0.04170000
N       -1.15750000      -0.65790000       0.03050000
N       -1.08210000      -2.01630000       0.01780000
C        0.05540000      -2.82120000      -0.01280000
N        0.07590000      -4.10670000      -0.03240000
C        1.28680000      -2.04500000      -0.02590000
C        1.22730000      -0.70650000       0.00390000
F        2.32380000       0.05580000      -0.01720000
H        0.75250000       1.83100000      -0.28910000
H       -0.92290000       1.79930000      -0.07140000
H       -1.98620000      -2.46140000       0.01820000
H       -0.86740000      -4.49750000      -0.02280000
H        2.22480000      -2.58220000      -0.06020000
