19
Properties=species:S:1:pos:R:3 gdb_85767=T pbc="F F F"
C       -0.16090000       0.77430000       2.02560000
C        0.20260000      -0.11390000       0.84070000
C        0.20770000       0.47970000      -0.60610000
C        1.63690000      -0.06310000      -0.85840000
C        2.72270000       0.91550000      -1.28560000
C        4.11370000       0.32800000      -1.37770000
O        2.48020000       2.08360000      -1.48130000
C        1.68670000      -0.45460000       0.64760000
O        2.57280000      -0.79460000       1.37620000
H        0.39460000       1.71690000       1.99460000
H       -1.22930000       1.01130000       2.02050000
H        0.07500000       0.27400000       2.96930000
H       -0.36730000      -1.05140000       0.88290000
H       -0.56830000       0.10890000      -1.27590000
H        0.20590000       1.57160000      -0.62000000
H        1.68890000      -0.96520000      -1.47850000
H        4.15040000      -0.43690000      -2.16200000
H        4.84040000       1.11160000      -1.59470000
H        4.35620000      -0.17160000      -0.43240000
