18
Properties=species:S:1:pos:R:3 gdb_117588=T pbc="F F F"
C       -0.08810000       1.58690000      -0.08610000
C        0.00560000       0.03750000      -0.02130000
C        0.79720000      -0.44950000       1.23070000
C        2.25980000      -0.01650000       1.28660000
O        2.80080000      -0.60180000       2.46020000
C       -1.34810000      -0.53020000       0.02720000
C       -2.46070000      -0.97470000       0.10140000
C        0.67770000      -0.44620000      -1.24710000
N        1.22790000      -0.80370000      -2.19820000
H        0.90250000       2.03240000      -0.19640000
H       -0.70390000       1.89360000      -0.93350000
H       -0.54800000       1.95620000       0.83380000
H        0.27310000      -0.07970000       2.11710000
H        0.76080000      -1.54160000       1.26670000
H        2.78620000      -0.36070000       0.38410000
H        2.34020000       1.08060000       1.32080000
H        3.73920000      -0.39440000       2.49440000
H       -3.44280000      -1.37630000       0.15460000
