15
Properties=species:S:1:pos:R:3 gdb_50277=T pbc="F F F"
O       -0.24610000       0.12900000      -0.49370000
C       -0.01690000       1.20300000      -0.00350000
C        1.31150000       1.91710000      -0.06780000
O        2.41470000       1.14710000      -0.57340000
C        2.64160000       2.09180000      -1.61510000
C        1.47860000       2.17270000      -2.53580000
C        1.43670000       2.95140000      -1.21890000
C        1.25140000       4.35100000      -1.10430000
C        1.08130000       5.53700000      -0.98740000
H       -0.80480000       1.79640000       0.51590000
H        1.55440000       2.36560000       0.90370000
H        3.66460000       2.36790000      -1.83940000
H        1.60550000       2.81080000      -3.40360000
H        0.84450000       1.30150000      -2.66940000
H        0.93550000       6.58410000      -0.88800000
