18
Properties=species:S:1:pos:R:3 gdb_17000=T pbc="F F F"
C        0.05050000       1.41030000      -0.01350000
C        1.37520000       0.70200000      -0.02880000
C        1.74250000       0.13600000       1.35700000
C        0.40270000      -0.67290000       1.36540000
C        0.06010000      -0.09190000      -0.02050000
C        0.00050000      -0.78910000      -1.35780000
O        0.93810000      -0.08280000      -2.18690000
C        2.00740000       0.42250000      -1.37050000
H       -0.26230000       1.93780000       0.88300000
H       -0.24050000       1.88230000      -0.94570000
H        2.62250000      -0.51120000       1.32830000
H        1.88370000       0.87470000       2.15170000
H        0.56540000      -1.75320000       1.34120000
H       -0.30940000      -0.44940000       2.16560000
H        0.28510000      -1.84800000      -1.24270000
H       -0.96020000      -0.74550000      -1.88120000
H        2.41150000       1.29000000      -1.90260000
H        2.81300000      -0.32200000      -1.25870000
