17
Properties=species:S:1:pos:R:3 gdb_123833=T pbc="F F F"
C       -0.03620000       1.48110000       0.09130000
C        1.35950000       2.14170000      -0.01190000
C        2.18940000       1.44110000      -1.04880000
C        1.97510000       0.09610000      -1.30940000
N        2.91550000      -0.27060000      -2.21670000
N        3.72640000       0.74670000      -2.57360000
C        3.28940000       1.78480000      -1.85470000
C        0.93420000      -0.68780000      -0.67990000
C       -0.00550000      -0.03180000       0.01790000
H       -0.53240000       1.80470000       1.01180000
H       -0.66920000       1.84370000      -0.73430000
H        1.24700000       3.20820000      -0.23080000
H        1.86220000       2.07980000       0.96490000
H        3.03840000      -1.16650000      -2.65770000
H        3.78550000       2.74010000      -1.95160000
H        0.92630000      -1.76910000      -0.77480000
H       -0.81140000      -0.57920000       0.49700000
