21
Properties=species:S:1:pos:R:3 gdb_91156=T pbc="F F F"
C        0.51720000       1.48320000      -0.53850000
C        0.09310000       0.10870000      -0.02450000
C        0.44870000      -1.08470000      -0.96700000
C        1.38430000      -1.66350000       0.13240000
C        2.84660000      -1.32650000      -0.00510000
C        3.24810000      -0.41910000       0.88520000
C        2.13140000       0.02830000       1.80870000
O        2.09500000       1.42590000       2.06720000
C        0.87260000      -0.59820000       1.15180000
H        1.57940000       1.50870000      -0.80750000
H       -0.04340000       1.72440000      -1.44920000
H        0.31340000       2.27260000       0.19160000
H       -0.97630000       0.14970000       0.20190000
H       -0.40320000      -1.72840000      -1.20030000
H        0.93980000      -0.80950000      -1.90580000
H        1.22660000      -2.71930000       0.37540000
H        3.48070000      -1.79270000      -0.75330000
H        4.25660000      -0.03330000       0.99340000
H        2.27330000      -0.41000000       2.80610000
H        2.13990000       1.88240000       1.22230000
H        0.17870000      -0.97180000       1.90660000
