19
Properties=species:S:1:pos:R:3 gdb_89535=T pbc="F F F"
C        0.39740000       1.57290000       0.07990000
C       -0.08750000       0.14530000      -0.06310000
C        0.38980000      -0.67260000      -1.28410000
C        1.02110000      -1.59070000      -0.22790000
O        0.59730000      -0.76310000       0.84330000
C        0.89520000      -3.13220000      -0.11200000
C        1.95700000      -3.27020000      -1.22860000
C        2.44120000      -2.20840000      -0.21280000
O        1.99310000      -3.10000000       0.88360000
H        1.47470000       1.63830000      -0.10270000
H       -0.11860000       2.22550000      -0.63310000
H        0.19830000       1.94370000       1.09000000
H       -1.17140000       0.09100000       0.10180000
H       -0.39300000      -1.12010000      -1.89890000
H        1.10280000      -0.15300000      -1.92870000
H        0.02720000      -3.75260000       0.11210000
H        2.51770000      -4.20360000      -1.19340000
H        1.70380000      -2.95710000      -2.24510000
H        3.41460000      -1.72840000      -0.10920000
