19
Properties=species:S:1:pos:R:3 gdb_68262=T pbc="F F F"
C        0.02690000       1.48410000       0.05690000
C        0.03900000      -0.01280000      -0.03170000
C        0.67850000      -0.93990000      -1.10850000
C        0.09440000      -1.84920000      -0.00000000
N        0.62340000      -0.90350000       1.06300000
C       -1.21340000      -0.98390000       0.00130000
C       -2.11150000      -0.99250000       1.23800000
C       -2.02020000      -1.02110000      -1.21430000
N       -2.69630000      -1.04060000      -2.15260000
H        1.04720000       1.88170000       0.05030000
H       -0.51010000       1.91240000      -0.79520000
H       -0.46190000       1.81300000       0.97900000
H        0.23500000      -0.97100000      -2.10680000
H        1.77060000      -0.90810000      -1.15210000
H        0.15510000      -2.93240000       0.10830000
H        1.64480000      -0.87490000       0.99220000
H       -1.49730000      -0.97000000       2.13710000
H       -2.77910000      -0.12550000       1.23240000
H       -2.73720000      -1.89000000       1.24860000
