13
Properties=species:S:1:pos:R:3 gdb_128950=T pbc="F F F"
N       -0.05880000      -1.09940000      -0.00330000
C       -0.01060000       0.05380000       0.00230000
C       -0.00050000       1.51670000       0.01070000
O        1.35850000       1.94500000      -0.00250000
C        1.52120000       3.28240000       0.00300000
C        2.71760000       3.96480000      -0.00740000
N        2.31370000       5.26030000       0.00470000
N        0.98350000       5.38020000       0.02100000
N        0.49430000       4.16350000       0.02010000
H       -0.54010000       1.89880000      -0.86370000
H       -0.51970000       1.88850000       0.90180000
H        3.74660000       3.65410000      -0.02130000
H        2.88070000       6.09370000       0.00270000
