17
Properties=species:S:1:pos:R:3 gdb_81170=T pbc="F F F"
O        0.03970000       1.43670000       0.12410000
C        0.01370000       0.04070000       0.04530000
C        0.11150000      -0.67370000       1.43090000
C       -1.38750000      -0.29020000       1.63260000
C       -1.40870000      -0.60640000       0.10220000
O       -1.13920000      -2.00500000       0.03710000
C       -0.03310000      -2.13050000       0.97720000
C       -2.49380000      -0.16420000      -0.81640000
O       -2.59910000       0.99210000      -1.16380000
H       -0.65280000       1.76570000      -0.46630000
H        0.65850000      -0.34720000      -0.75550000
H        0.88670000      -0.43480000       2.15710000
H       -2.01060000      -0.92640000       2.26420000
H       -1.52270000       0.76680000       1.84650000
H        0.84750000      -2.52020000       0.45560000
H       -0.30850000      -2.81760000       1.78420000
H       -3.19590000      -0.94670000      -1.17080000
