21
Properties=species:S:1:pos:R:3 gdb_94210=T pbc="F F F"
C       -0.02520000       1.59460000       0.16070000
C       -0.01660000       0.06960000       0.04190000
C       -1.43400000      -0.48050000      -0.21320000
C       -2.01400000      -0.04600000      -1.47920000
C       -2.47030000       0.31420000      -2.53180000
C        1.11280000      -0.44820000      -0.90400000
C        2.02010000      -0.67090000       0.33740000
C        0.74360000      -0.61620000       1.21580000
O        0.75180000       0.11690000       2.41840000
H        0.98230000       1.99180000       0.30940000
H       -0.43940000       2.03780000      -0.74980000
H       -0.63160000       1.91600000       1.01260000
H       -1.40190000      -1.57780000      -0.19510000
H       -2.09010000      -0.17850000       0.61460000
H       -2.88410000       0.62930000      -3.45730000
H        0.84130000      -1.38620000      -1.39620000
H        1.46870000       0.25030000      -1.66380000
H        2.62260000      -1.58180000       0.37410000
H        2.66430000       0.18920000       0.53730000
H        0.34740000      -1.63070000       1.37890000
H        1.26750000      -0.37060000       3.06840000
