21
Properties=species:S:1:pos:R:3 gdb_63238=T pbc="F F F"
C       -0.10410000       1.51430000       0.07770000
C        0.00120000      -0.03160000      -0.00160000
C       -1.41690000      -0.63300000      -0.03710000
C        0.76140000      -0.43300000      -1.24880000
C        1.93120000      -1.06860000      -1.27070000
C        2.69530000      -1.43840000      -0.02820000
C        2.24750000      -0.58860000       1.17490000
C        0.73280000      -0.50760000       1.26710000
O        0.13540000      -0.77660000       2.28390000
H        0.88140000       1.98540000       0.13790000
H       -0.60300000       1.90030000      -0.81750000
H       -0.68870000       1.81380000       0.95280000
H       -1.97290000      -0.24340000      -0.89610000
H       -1.37990000      -1.72290000      -0.12100000
H       -1.95750000      -0.38330000       0.87810000
H        0.26380000      -0.18960000      -2.18650000
H        2.37200000      -1.34610000      -2.22500000
H        2.55640000      -2.50630000       0.19370000
H        3.77160000      -1.31010000      -0.19160000
H        2.63260000      -0.97180000       2.12230000
H        2.62920000       0.43200000       1.03900000
