21
Properties=species:S:1:pos:R:3 gdb_38677=T pbc="F F F"
C       -0.03580000       1.30890000       0.76280000
C        1.21540000       0.78290000       0.08340000
C        2.47260000       0.34400000       0.83900000
C        2.47680000      -1.07560000       1.41160000
C        1.88910000      -2.12670000       0.42610000
C        0.53140000      -2.01050000       1.17180000
C        1.29750000      -1.39050000       2.37440000
O       -0.44410000      -1.18340000       0.57160000
C       -0.10020000       0.03030000      -0.03180000
H       -0.09150000       1.20260000       1.84080000
H       -0.51460000       2.20310000       0.37730000
H        1.45770000       1.30480000      -0.83880000
H        3.31520000       0.41710000       0.14040000
H        2.68660000       1.05900000       1.64390000
H        3.47330000      -1.29460000       1.80620000
H        1.88840000      -1.88020000      -0.63860000
H        2.32840000      -3.11890000       0.56030000
H        0.00080000      -2.94470000       1.37000000
H        1.56350000      -2.15900000       3.10630000
H        0.81720000      -0.56230000       2.90060000
H       -0.57810000       0.09250000      -1.00670000
