17
Properties=species:S:1:pos:R:3 gdb_34096=T pbc="F F F"
N        0.03640000      -1.12080000       0.04110000
C        0.01410000       0.03420000       0.00780000
C        0.00180000       1.48610000       0.00630000
C       -0.97050000       2.17370000       1.01470000
C       -1.45360000       2.99370000      -0.17110000
C       -0.32870000       3.50310000      -0.99400000
C        1.06790000       3.60410000      -0.39330000
C        1.38930000       2.14120000      -0.00180000
N       -0.76380000       2.09550000      -1.18080000
H       -1.73650000       1.48360000       1.36990000
H       -0.52090000       2.68980000       1.86850000
H       -2.47570000       3.32430000      -0.32370000
H       -0.59020000       4.14460000      -1.82930000
H        1.78290000       3.98940000      -1.12400000
H        1.08980000       4.27740000       0.46900000
H        1.88750000       2.04520000       0.96620000
H        2.01660000       1.66000000      -0.75700000
