17
Properties=species:S:1:pos:R:3 gdb_47404=T pbc="F F F"
O       -0.10600000       0.01220000      -0.00690000
C       -0.09920000       1.21420000       0.01530000
C       -1.29820000       2.15880000       0.08300000
C       -0.63860000       3.48910000       0.44960000
O        0.68700000       3.41990000      -0.09590000
C        1.14890000       2.09380000      -0.01610000
C        2.23920000       1.76890000       1.04840000
O        3.18650000       1.40960000       0.02890000
C        2.25810000       1.72820000      -1.02280000
H       -1.75430000       2.19990000      -0.91310000
H       -2.05140000       1.80010000       0.78660000
H       -1.12280000       4.36510000       0.01470000
H       -0.59650000       3.62230000       1.54070000
H        2.54790000       2.65130000       1.62190000
H        2.01970000       0.93090000       1.71970000
H        2.04340000       0.86320000      -1.66020000
H        2.57890000       2.58330000      -1.62890000
