25
Properties=species:S:1:pos:R:3 gdb_122953=T pbc="F F F"
C        0.05070000       1.54290000      -0.11860000
C        0.07820000       0.01610000      -0.02460000
C        0.72760000      -0.50300000       1.26020000
C        0.64240000      -2.02820000       1.37030000
O        2.07830000      -0.05190000       1.24880000
C        2.72450000      -0.03350000       2.50310000
C        4.09450000       0.60710000       2.32250000
C        4.88880000       0.67040000       3.62010000
O        6.13780000       1.28080000       3.33350000
H        1.06310000       1.94810000      -0.05190000
H       -0.39070000       1.87270000      -1.06400000
H       -0.54120000       1.97900000       0.69460000
H       -0.94060000      -0.38570000      -0.08250000
H        0.63030000      -0.40170000      -0.87590000
H        0.21070000      -0.05150000       2.12590000
H        1.10940000      -2.39530000       2.28880000
H       -0.40240000      -2.35490000       1.37720000
H        1.14670000      -2.49780000       0.51950000
H        2.12360000       0.53830000       3.23190000
H        2.83580000      -1.05220000       2.90990000
H        4.66470000       0.03860000       1.58020000
H        3.97240000       1.62040000       1.92540000
H        4.32880000       1.24660000       4.37550000
H        5.02660000      -0.34590000       4.02560000
H        6.64460000       1.32440000       4.14940000
