16
Properties=species:S:1:pos:R:3 gdb_78123=T pbc="F F F"
C       -0.00420000       1.57070000      -0.05380000
C        0.08700000       0.05850000      -0.08100000
C        0.67950000      -0.77550000      -1.16140000
C        1.34280000      -0.74860000       0.24860000
C        2.55460000      -0.12530000      -0.35740000
O        3.66780000       0.08510000       0.01290000
C        1.89490000      -0.07070000      -1.80300000
C        2.62480000      -0.87040000      -2.76830000
N        3.20010000      -1.51890000      -3.53330000
H        0.88920000       2.05990000      -0.44900000
H       -0.86390000       1.91380000      -0.63880000
H       -0.13710000       1.92050000       0.97430000
H       -0.78110000      -0.42420000       0.36400000
H        0.17440000      -1.61520000      -1.61860000
H        1.35160000      -1.48320000       1.04380000
H        1.71290000       0.92630000      -2.21300000
