17
Properties=species:S:1:pos:R:3 gdb_15892=T pbc="F F F"
C       -0.01680000       1.38800000      -0.01070000
N        0.07150000      -0.05640000       0.08430000
C       -1.17820000      -0.81110000       0.34810000
C       -0.39930000      -1.62680000       1.39030000
O       -0.61260000      -2.60260000       2.04070000
C        0.78060000      -0.64470000       1.25530000
C        2.15680000      -1.20670000       0.91110000
O        2.10890000      -1.94630000      -0.28690000
H        0.98630000       1.81540000      -0.10160000
H       -0.58190000       1.66930000      -0.90460000
H       -0.50920000       1.84690000       0.86610000
H       -1.97470000      -0.21340000       0.82080000
H       -1.59520000      -1.34660000      -0.51070000
H        0.83270000       0.02530000       2.12990000
H        2.88540000      -0.37990000       0.85150000
H        2.48310000      -1.87940000       1.71170000
H        1.56090000      -1.41550000      -0.88350000
