18
Properties=species:S:1:pos:R:3 gdb_11078=T pbc="F F F"
C       -0.03640000       1.53330000       0.02680000
C        0.13540000       0.02890000       0.09650000
C        1.40420000      -0.76650000      -0.20150000
O        1.42490000      -1.78310000      -1.14230000
C        2.65160000      -0.05390000       0.32630000
C        2.01710000      -0.05670000       1.75960000
C        0.78780000      -0.76340000       1.20340000
O        0.15880000      -1.71800000       1.98230000
H        0.83810000       2.06410000       0.41340000
H       -0.19360000       1.86820000      -1.00500000
H       -0.90220000       1.85780000       0.61470000
H       -0.71720000      -0.52620000      -0.30130000
H        1.33380000      -1.39290000      -2.01900000
H        3.53390000      -0.69480000       0.26880000
H        2.89320000       0.92300000      -0.10630000
H        2.56590000      -0.70190000       2.44850000
H        1.85250000       0.91400000       2.23670000
H       -0.60860000      -2.05040000       1.50570000
