21
Properties=species:S:1:pos:R:3 gdb_105238=T pbc="F F F"
C       -1.22130000       0.25300000       0.02530000
O        0.16590000      -0.07660000       0.05530000
C        0.62590000      -0.75120000      -1.09320000
C        1.79020000      -1.67150000      -0.79820000
C        0.41380000      -2.24490000      -1.06090000
O       -0.33010000      -2.81180000      -0.02510000
C        0.58080000       0.05050000      -2.39370000
C        1.38460000       1.34550000      -2.29010000
O        1.00070000      -0.75050000      -3.49390000
H       -1.43190000       1.07870000      -0.66630000
H       -1.83380000      -0.61290000      -0.25160000
H       -1.48510000       0.57530000       1.03570000
H        2.56480000      -1.80920000      -1.54550000
H        2.14280000      -1.67540000       0.22810000
H        0.24850000      -2.76330000      -1.99750000
H       -0.26540000      -2.20570000       0.72310000
H       -0.46490000       0.29300000      -2.61890000
H        1.31550000       1.91350000      -3.22180000
H        1.02140000       1.96540000      -1.46630000
H        2.44060000       1.12480000      -2.09080000
H        1.96360000      -0.74770000      -3.50800000
