17
Properties=species:S:1:pos:R:3 gdb_34492=T pbc="F F F"
C        0.08930000      -1.18540000       0.04220000
C       -0.00720000       0.01590000       0.02180000
C       -0.05770000       1.42520000       0.00540000
C       -1.12230000       2.22790000      -0.13100000
C       -0.69490000       3.63540000      -0.08870000
C       -1.29750000       4.73100000      -0.93380000
C       -1.48210000       4.74200000       0.56960000
O        0.70840000       3.63350000       0.08360000
C        1.18090000       2.29170000       0.15110000
H        0.15800000      -2.24480000       0.05820000
H       -2.15050000       1.91700000      -0.25490000
H       -0.59490000       5.44130000      -1.35490000
H       -2.14600000       4.49380000      -1.56660000
H       -2.45890000       4.51250000       0.98160000
H       -0.90090000       5.45950000       1.13780000
H        1.69230000       2.11830000       1.10910000
H        1.90820000       2.10570000      -0.65270000
