13
Properties=species:S:1:pos:R:3 gdb_33272=T pbc="F F F"
C        0.02700000      -3.79820000       0.02820000
C        0.02840000      -2.59140000       0.00300000
C        0.02930000      -1.23080000      -0.02340000
C        0.03270000      -0.02320000      -0.05170000
C        0.02310000       1.44700000      -0.06160000
C        1.38940000       1.99370000      -0.01300000
C        2.49890000       2.44580000       0.04470000
C       -0.73240000       1.97170000      -1.21140000
C       -1.36150000       2.40580000      -2.13570000
H        0.02720000      -4.85980000       0.04850000
H       -0.49670000       1.77740000       0.85260000
H        3.48330000       2.84230000       0.08790000
H       -1.91300000       2.78600000      -2.96010000
