16
Properties=species:S:1:pos:R:3 gdb_46228=T pbc="F F F"
O        0.01400000       0.07150000      -0.32090000
C       -0.03460000       1.23660000      -0.05720000
C       -1.13660000       2.20440000       0.41620000
C       -0.05600000       3.33260000       0.50550000
C        0.99990000       2.34090000      -0.01470000
C        2.44920000       2.16940000       0.33220000
C        2.07820000       2.59620000      -1.06710000
C        2.24320000       1.70200000      -2.18030000
N        2.39200000       1.01000000      -3.09480000
H       -1.91740000       2.36640000      -0.33200000
H       -1.61160000       1.91470000       1.35680000
H       -0.23980000       4.19010000      -0.14440000
H        0.13220000       3.69010000       1.52010000
H        2.91700000       2.91390000       0.96690000
H        2.79650000       1.15050000       0.46530000
H        2.23570000       3.64150000      -1.31540000
