19
Properties=species:S:1:pos:R:3 gdb_71900=T pbc="F F F"
C        0.03250000       1.53890000       0.02030000
C       -0.02470000       0.03020000       0.00300000
C        0.44070000      -0.72700000      -1.27740000
C       -0.68160000      -1.77150000      -1.07760000
O       -0.35650000      -2.71480000      -0.03400000
C       -0.73270000      -1.79350000       1.01210000
C        0.37800000      -0.75400000       1.28840000
C       -1.35970000      -0.81280000      -0.03850000
O       -2.59730000      -0.21440000      -0.06240000
H        1.07160000       1.88850000       0.04920000
H       -0.43860000       1.96550000      -0.87170000
H       -0.48160000       1.94690000       0.89710000
H        0.24570000      -0.12360000      -2.17100000
H        1.46480000      -1.10820000      -1.31010000
H       -1.13820000      -2.25400000      -1.94460000
H       -1.23090000      -2.29390000       1.84540000
H        1.39950000      -1.13640000       1.36300000
H        0.13930000      -0.16940000       2.18390000
H       -3.27600000      -0.89940000      -0.08540000
