19
Properties=species:S:1:pos:R:3 gdb_38319=T pbc="F F F"
C       -0.08730000       1.62510000       0.05190000
C        1.43790000       1.38430000       0.02410000
O        1.21680000       0.17870000       0.82650000
C       -0.01060000       0.08270000       0.03230000
C        0.56180000      -0.27960000      -1.36080000
C       -0.26920000       0.09020000      -2.59700000
O        0.06540000       1.43630000      -2.92430000
C        1.44150000       1.62730000      -2.60680000
C        1.72840000       0.76870000      -1.36750000
H       -0.40860000       1.98880000       1.02820000
H       -0.56870000       2.15560000      -0.76910000
H        2.16500000       2.07670000       0.44900000
H       -0.77380000      -0.56400000       0.46580000
H        0.89780000      -1.31720000      -1.37770000
H       -0.02710000      -0.58160000      -3.43570000
H       -1.35120000       0.05350000      -2.43360000
H        2.07840000       1.31030000      -3.44770000
H        1.59420000       2.70020000      -2.45030000
H        2.72420000       0.32390000      -1.38810000
