18
Properties=species:S:1:pos:R:3 gdb_56243=T pbc="F F F"
N        0.05890000       0.78990000       0.93550000
C       -0.11570000      -0.03830000      -0.13530000
O        0.52570000       0.08170000      -1.16320000
C       -1.20730000      -1.09040000       0.03460000
C       -0.86320000      -2.36420000      -0.74350000
N       -1.98060000      -3.29990000      -0.80250000
C       -2.29650000      -4.05220000       0.30630000
N       -3.21370000      -5.06920000       0.06320000
O       -1.80220000      -3.86110000       1.40390000
H        0.80020000       1.47040000       0.89030000
H       -0.36510000       0.59900000       1.82620000
H       -1.38010000      -1.33530000       1.08520000
H       -2.13980000      -0.66740000      -0.35980000
H       -0.59170000      -2.08710000      -1.76330000
H        0.00760000      -2.84490000      -0.28320000
H       -2.17920000      -3.70530000      -1.70300000
H       -3.90060000      -4.91510000      -0.65990000
H       -3.59800000      -5.44910000       0.91510000
