21
Properties=species:S:1:pos:R:3 gdb_77552=T pbc="F F F"
C       -0.13400000       1.57230000       0.07340000
C        0.03790000       0.06260000       0.01970000
C        0.87190000      -0.64440000      -1.10880000
C        0.58960000      -0.63460000      -2.58720000
C        2.17470000      -0.16390000      -0.38820000
C        1.23960000      -0.65830000       0.74370000
C        0.91140000      -1.88740000      -0.16480000
C        1.50020000      -0.68440000       2.20660000
O        2.49110000      -0.24400000       2.73660000
H        0.79690000       2.12270000      -0.07990000
H       -0.84290000       1.89770000      -0.69650000
H       -0.54390000       1.87980000       1.04140000
H       -0.92580000      -0.42770000       0.20460000
H        0.61450000       0.38530000      -2.98670000
H        1.33420000      -1.22400000      -3.13330000
H       -0.39790000      -1.05670000      -2.80450000
H        3.07020000      -0.76600000      -0.56210000
H        2.41350000       0.89900000      -0.41890000
H       -0.03850000      -2.39800000       0.01800000
H        1.73030000      -2.59500000      -0.31910000
H        0.68560000      -1.15060000       2.81050000
