23
Properties=species:S:1:pos:R:3 gdb_104733=T pbc="F F F"
C       -0.60570000       1.48230000       0.73030000
C       -0.04180000       0.19520000       0.11530000
C        0.87870000      -0.54720000       1.06460000
C        0.30210000      -1.44840000       2.13640000
C        1.13540000      -2.04560000       1.01670000
C        0.53140000      -2.96950000      -0.00890000
O        2.43790000      -2.46420000       1.32910000
O        1.98840000       0.19320000       1.53610000
C        2.90110000       0.58690000       0.51720000
H        0.19810000       2.16680000       1.01550000
H       -1.26190000       1.99980000       0.02420000
H       -1.18430000       1.26210000       1.63330000
H       -0.86400000      -0.47030000      -0.16470000
H        0.48450000       0.42670000      -0.81930000
H        0.76100000      -1.39690000       3.11830000
H       -0.77170000      -1.60730000       2.14180000
H       -0.49940000      -2.69660000      -0.24370000
H        1.11650000      -2.95740000      -0.93410000
H        0.53130000      -3.99490000       0.37530000
H        2.84370000      -1.73880000       1.82080000
H        3.21270000      -0.26790000      -0.09570000
H        2.47780000       1.36030000      -0.13610000
H        3.77400000       1.00370000       1.02560000
