19
Properties=species:S:1:pos:R:3 gdb_109899=T pbc="F F F"
C        0.13060000       1.18840000      -0.27720000
O        0.00960000      -0.14640000       0.18830000
C       -1.29590000      -0.64200000       0.12090000
C       -1.74870000      -1.23090000      -1.26630000
O       -0.69780000      -1.35620000      -2.18860000
C       -2.21180000      -2.53980000      -0.52720000
C       -1.13250000      -3.62070000      -0.51340000
O       -0.40870000      -2.92970000       0.53970000
C       -1.50670000      -2.02200000       0.76520000
H        1.17970000       1.47130000      -0.16550000
H       -0.15560000       1.27640000      -1.33320000
H       -0.49010000       1.87390000       0.31830000
H       -2.02710000       0.08370000       0.50970000
H       -2.56370000      -0.69450000      -1.75960000
H        0.11960000      -1.32660000      -1.67140000
H       -3.26130000      -2.81770000      -0.60350000
H       -1.48210000      -4.60370000      -0.17330000
H       -0.53760000      -3.73090000      -1.42480000
H       -1.89320000      -2.07780000       1.78680000
