20
Properties=species:S:1:pos:R:3 gdb_99716=T pbc="F F F"
C        0.67680000       1.28060000      -0.06910000
C        0.25490000      -0.18540000      -0.20400000
C       -1.26950000      -0.39920000      -0.08700000
C       -2.02740000       0.11730000      -1.32650000
C       -3.54030000       0.08650000      -1.26060000
O       -1.43460000       0.53360000      -2.29280000
C       -1.59000000      -1.88800000       0.11590000
N       -1.42090000      -2.34290000       1.39310000
O       -1.96110000      -2.61220000      -0.78800000
H        1.76450000       1.37610000      -0.14110000
H        0.23240000       1.88740000      -0.86060000
H        0.37110000       1.69630000       0.89840000
H        0.57650000      -0.57680000      -1.17340000
H        0.75680000      -0.78370000       0.56540000
H       -1.64770000       0.15260000       0.78600000
H       -3.90470000       0.53800000      -0.33130000
H       -3.95530000       0.61460000      -2.11970000
H       -3.87210000      -0.95610000      -1.27490000
H       -0.99080000      -1.77860000       2.10510000
H       -1.48180000      -3.33700000       1.54610000
