21
Properties=species:S:1:pos:R:3 gdb_90138=T pbc="F F F"
C       -0.11550000       1.57940000       0.06660000
C        0.07430000       0.07020000      -0.02270000
C        1.17600000      -0.50880000      -0.98550000
C        1.76950000      -1.28770000       0.20510000
C        2.18670000      -0.34700000       1.30780000
C        0.72950000      -0.67730000       1.16300000
C        0.13100000      -1.80870000       1.98960000
C        0.90300000      -3.02920000       1.48800000
C        1.76030000      -2.74400000       0.49640000
H        0.82530000       2.09120000       0.29570000
H       -0.48970000       1.98550000      -0.87990000
H       -0.83440000       1.83920000       0.85150000
H       -0.88660000      -0.40270000      -0.25150000
H        0.76510000      -1.14800000      -1.76950000
H        1.84520000       0.22420000      -1.44940000
H        2.69800000      -0.80440000       2.14770000
H        2.54530000       0.64720000       1.05340000
H        0.24600000      -1.67200000       3.07270000
H       -0.94750000      -1.91790000       1.80940000
H        0.77800000      -4.01250000       1.93240000
H        2.38730000      -3.47410000      -0.00500000
