21
Properties=species:S:1:pos:R:3 gdb_106688=T pbc="F F F"
C        0.06000000       1.49620000       0.07510000
C       -0.00640000      -0.00700000       0.07570000
C        1.17570000      -0.88670000      -0.24970000
C        0.53800000      -1.02090000       1.11350000
C        1.28880000      -0.76190000       2.38800000
O        2.17400000      -1.81930000       2.74860000
C       -0.74450000      -1.82040000       0.99740000
C       -1.94350000      -0.96530000       1.31790000
C       -1.28260000      -0.81570000      -0.02820000
H        1.03640000       1.85680000       0.41440000
H       -0.10070000       1.89410000      -0.93430000
H       -0.70550000       1.93130000       0.72700000
H        1.08310000      -1.68950000      -0.97670000
H        2.14180000      -0.38890000      -0.26140000
H        1.92540000       0.12290000       2.27870000
H        0.57890000      -0.55300000       3.20470000
H        1.64480000      -2.61750000       2.84530000
H       -0.81330000      -2.90180000       0.94080000
H       -2.90030000      -1.47960000       1.31470000
H       -1.86840000      -0.17190000       2.05730000
H       -1.81070000      -1.03950000      -0.94900000
