17
Properties=species:S:1:pos:R:3 gdb_67600=T pbc="F F F"
O        0.10560000       1.37130000       0.12320000
C        0.04600000      -0.00980000       0.03150000
C        1.02970000      -0.89190000      -0.74140000
C        0.27890000      -2.03860000      -1.40360000
C       -1.05440000      -2.08140000      -0.66240000
C       -0.95780000      -2.02070000       0.84080000
O        0.32990000      -1.95840000       1.40850000
C        1.00070000      -0.89600000       0.77830000
C       -1.27500000      -0.76060000       0.07190000
H       -0.12600000       1.73960000      -0.73670000
H        1.89950000      -0.45200000      -1.21760000
H        0.12770000      -1.84430000      -2.47200000
H        0.81970000      -2.98800000      -1.31210000
H       -1.88950000      -2.62070000      -1.09640000
H       -1.66440000      -2.54460000       1.47260000
H        1.84160000      -0.51850000       1.34690000
H       -2.21180000      -0.22310000       0.13070000
