19
Properties=species:S:1:pos:R:3 gdb_107272=T pbc="F F F"
O       -0.00920000       1.34200000       0.30040000
C       -0.05940000      -0.02390000      -0.10250000
C       -1.47770000      -0.49390000       0.00960000
C       -2.02970000      -1.08790000       1.28000000
C       -1.87790000      -1.95920000       0.05550000
C       -2.95440000      -1.92500000      -1.04950000
C       -3.82680000      -0.68550000      -0.75550000
C       -2.46600000      -0.04110000      -1.09080000
O       -2.28460000      -1.11620000      -2.08670000
H        0.86200000       1.68520000       0.08040000
H        0.27360000      -0.14180000      -1.14520000
H        0.59300000      -0.64970000       0.52770000
H       -1.29840000      -1.25860000       2.06560000
H       -3.00500000      -0.81180000       1.66090000
H       -1.14390000      -2.75660000       0.04150000
H       -3.35300000      -2.86990000      -1.41710000
H       -4.53720000      -0.51870000      -1.56420000
H       -4.30270000      -0.54050000       0.21440000
H       -2.34860000       0.96380000      -1.49350000
