17
Properties=species:S:1:pos:R:3 gdb_39551=T pbc="F F F"
C       -0.00830000       1.54820000      -0.10480000
C        1.36740000       2.14350000       0.07640000
C        2.33790000       1.53730000       0.76540000
C        2.10770000       0.26460000       1.49160000
C        0.81410000      -0.42740000       1.30490000
C        0.03610000       0.01920000       0.05430000
N        0.81480000      -0.53130000      -1.08370000
C        1.87250000      -1.04040000      -0.59800000
N        2.03680000      -1.10230000       0.81540000
H       -0.71590000       1.99390000       0.60920000
H       -0.38580000       1.78220000      -1.10490000
H        1.55760000       3.10990000      -0.38270000
H        3.31870000       1.99400000       0.85850000
H        2.61150000       0.17740000       2.45010000
H        0.29730000      -0.89590000       2.13600000
H       -0.97710000      -0.39350000       0.03750000
H        2.65650000      -1.47060000      -1.21450000
