19
Properties=species:S:1:pos:R:3 gdb_61650=T pbc="F F F"
O       -0.80450000       0.82870000       0.07710000
C        0.19000000      -0.12660000      -0.18510000
C        1.15430000       0.34770000      -1.29270000
C        0.41620000       0.60520000      -2.58780000
C        1.15550000       0.56750000      -3.91080000
C        0.17490000      -0.52210000      -3.55010000
O        0.65590000      -1.78180000      -3.16890000
C        0.95680000      -0.44580000       1.07830000
O        0.71510000       0.10050000       2.12870000
H       -0.71700000       1.04210000       1.01950000
H       -0.26570000      -1.07220000      -0.52850000
H        1.65210000       1.26520000      -0.95600000
H        1.92100000      -0.41760000      -1.44930000
H       -0.38610000       1.32990000      -2.49750000
H        0.89200000       1.28040000      -4.68470000
H        2.20740000       0.30070000      -3.87780000
H       -0.77950000      -0.54260000      -4.07520000
H        0.98490000      -2.22690000      -3.95650000
H        1.75960000      -1.20600000       0.98790000
