16
Properties=species:S:1:pos:R:3 gdb_133635=T pbc="F F F"
F       -0.65710000       0.12870000       0.90890000
C       -0.17380000       1.28870000       0.43830000
F        1.16020000       1.23190000       0.51460000
F       -0.51480000       1.36700000      -0.85870000
C       -0.73230000       2.50220000       1.18430000
O       -0.19700000       2.68930000       2.46450000
C       -0.65540000       1.79910000       3.44960000
C        0.16870000       0.59060000       3.79520000
C        0.12700000       1.79060000       4.72130000
H       -0.46760000       3.38620000       0.59800000
H       -1.82780000       2.40330000       1.19560000
H       -1.74170000       1.72420000       3.49800000
H       -0.34280000      -0.32040000       4.08480000
H        1.07430000       0.44410000       3.21880000
H        1.00580000       2.42460000       4.74880000
H       -0.41220000       1.71760000       5.65880000
