19
Properties=species:S:1:pos:R:3 gdb_76046=T pbc="F F F"
C       -0.09880000       1.61720000      -0.16930000
C       -0.03250000       0.11570000      -0.01760000
C        1.30580000      -0.64950000      -0.13580000
C        2.54640000       0.03660000      -0.31990000
C        3.59300000       0.61930000      -0.44600000
C        0.55880000      -0.52630000       1.18290000
C        1.06560000       0.05590000       2.49460000
C        0.47980000      -1.23870000       3.10040000
O       -0.01650000      -1.66780000       1.80690000
H        0.78190000       2.09880000       0.26360000
H       -0.14350000       1.90250000      -1.22540000
H       -0.98860000       2.01900000       0.32710000
H       -0.86620000      -0.43550000      -0.44590000
H        1.23080000      -1.62740000      -0.60320000
H        4.51680000       1.12660000      -0.57370000
H        2.14770000       0.17590000       2.56250000
H        0.57480000       0.97790000       2.81230000
H        1.21370000      -1.94440000       3.50480000
H       -0.33590000      -1.10970000       3.81920000
