19
Properties=species:S:1:pos:R:3 gdb_108545=T pbc="F F F"
O        0.07110000       1.40050000       0.02750000
C        0.01930000      -0.01340000      -0.13210000
C       -1.39210000      -0.54650000      -0.05620000
C       -2.40790000       0.00510000      -1.05750000
O       -3.59550000      -0.71030000      -0.68470000
C       -3.13690000      -1.50530000       0.38380000
C       -1.71850000      -2.08170000       0.08970000
C       -1.41320000      -2.01130000       1.60340000
C       -2.17660000      -0.70100000       1.30920000
H       -0.24840000       1.60500000       0.91240000
H        0.43500000      -0.20870000      -1.12760000
H        0.67270000      -0.51920000       0.59340000
H       -2.56310000       1.08440000      -0.95790000
H       -2.14270000      -0.21810000      -2.09920000
H       -3.93550000      -2.12670000       0.78730000
H       -1.46010000      -2.86960000      -0.61920000
H       -1.92510000      -2.74070000       2.23770000
H       -0.36520000      -1.92310000       1.89450000
H       -2.45150000       0.09610000       2.00280000
