21
Properties=species:S:1:pos:R:3 gdb_1567=T pbc="F F F"
C       -0.03480000       1.53810000      -0.06990000
C        0.02190000       0.01030000       0.02780000
C        0.72100000      -0.52210000       1.29140000
C       -0.00820000      -0.14030000       2.58640000
C        0.88640000      -2.03920000       1.19170000
O        1.65490000      -2.49900000       2.28370000
C        1.82540000      -3.89410000       2.28750000
H        0.96970000       1.97370000      -0.02380000
H       -0.48960000       1.85210000      -1.01460000
H       -0.62440000       1.97760000       0.74010000
H       -0.99830000      -0.39600000      -0.01650000
H        0.54290000      -0.38140000      -0.85570000
H        1.73450000      -0.09760000       1.32750000
H       -1.04940000      -0.48620000       2.56250000
H        0.48080000      -0.60260000       3.44660000
H       -0.01990000       0.94200000       2.74160000
H       -0.10430000      -2.52990000       1.18930000
H        1.38100000      -2.30740000       0.24190000
H        0.86210000      -4.42530000       2.35410000
H        2.34530000      -4.24640000       1.38180000
H        2.42970000      -4.14980000       3.16160000
