16
Properties=species:S:1:pos:R:3 gdb_98751=T pbc="F F F"
O       -0.15640000       1.40360000       0.05900000
C       -0.12670000       0.03850000      -0.21360000
C       -1.34760000      -0.67140000       0.34490000
O       -2.22300000      -0.03250000       0.89200000
C       -1.40260000      -2.15980000       0.19560000
C       -1.74310000      -2.96110000       1.44450000
N       -2.66030000      -2.85990000       0.35340000
C       -3.92900000      -2.27770000       0.44430000
O       -4.69730000      -2.49420000       1.34250000
H       -1.00210000       1.56180000       0.50750000
H       -0.09570000      -0.16090000      -1.29990000
H        0.77560000      -0.43660000       0.20730000
H       -0.70870000      -2.59060000      -0.52280000
H       -1.25870000      -3.92200000       1.59110000
H       -1.97660000      -2.39370000       2.34170000
H       -4.17450000      -1.68600000      -0.45440000
