17
Properties=species:S:1:pos:R:3 gdb_116734=T pbc="F F F"
C        0.04730000       1.23730000       0.29670000
C        0.09910000      -0.27790000       0.50750000
N        0.67980000      -1.10940000      -0.53580000
C        1.13030000      -0.58290000      -1.59320000
N        1.68290000      -1.39230000      -2.58230000
C        2.19740000      -0.90740000      -3.76530000
O        2.21920000       0.27080000      -4.06000000
C        2.71620000      -1.95210000      -4.63340000
C        3.15240000      -2.79580000      -5.37050000
H        1.04710000       1.66750000       0.17660000
H       -0.54700000       1.50730000      -0.58260000
H       -0.41510000       1.71130000       1.16750000
H        0.65070000      -0.50080000       1.43100000
H       -0.91610000      -0.65840000       0.68460000
H        1.15030000       0.47420000      -1.85890000
H        1.69680000      -2.38620000      -2.40140000
H        3.54140000      -3.53180000      -6.03140000
