19
Properties=species:S:1:pos:R:3 gdb_64710=T pbc="F F F"
C       -0.01830000       1.63580000       0.14900000
C        0.03860000       0.11950000       0.11320000
C       -1.32850000      -0.51920000      -0.20630000
C       -1.91430000      -0.07170000      -1.46280000
C       -2.39980000       0.30200000      -2.49660000
O        1.03680000      -0.37950000      -0.83860000
C        1.62240000      -1.19500000       0.17670000
C        2.21600000      -0.35750000       1.26220000
C        0.72720000      -0.64070000       1.25780000
H        0.95230000       2.06000000       0.41330000
H       -0.31240000       2.02340000      -0.83000000
H       -0.75630000       1.97170000       0.88530000
H       -1.19930000      -1.60750000      -0.22370000
H       -2.01490000      -0.29670000       0.62250000
H       -2.82570000       0.62520000      -3.41390000
H        1.92410000      -2.20180000      -0.08770000
H        2.76500000      -0.90110000       2.02540000
H        2.60860000       0.62780000       1.02960000
H        0.21480000      -1.13110000       2.07550000
