16
Properties=species:S:1:pos:R:3 gdb_7258=T pbc="F F F"
C        0.12710000       1.58850000      -0.04190000
C       -0.01740000       0.05100000       0.00200000
N        0.35830000      -0.62950000      -1.22850000
C        0.87590000      -0.48820000       1.12860000
O        1.99310000      -0.89450000       0.93390000
N        0.28350000      -0.41600000       2.39490000
C        0.85820000      -0.71310000       3.63030000
O        1.98680000      -1.06410000       3.82740000
H        1.16950000       1.86380000      -0.22930000
H       -0.49070000       1.99490000      -0.84910000
H       -0.19250000       2.06130000       0.89330000
H       -1.06470000      -0.18890000       0.24170000
H        0.18660000      -0.03230000      -2.03010000
H        1.35700000      -0.81950000      -1.19080000
H       -0.68190000      -0.12110000       2.42410000
H        0.11010000      -0.57420000       4.43780000
