21
Properties=species:S:1:pos:R:3 gdb_110937=T pbc="F F F"
C        0.26150000       1.58680000       0.49320000
C       -0.81160000       0.73660000       1.18290000
C       -0.19770000      -0.26040000       2.14970000
O       -1.15280000      -1.05460000       2.91960000
C       -0.37260000      -2.23340000       2.68800000
C       -0.40920000      -2.63480000       1.24650000
C       -1.64450000      -2.53160000       0.37790000
O       -2.37530000      -3.75240000       0.38640000
C        0.53470000      -1.52730000       1.70050000
H        0.94600000       0.96320000      -0.09180000
H       -0.19190000       2.31170000      -0.18850000
H        0.85920000       2.14420000       1.22280000
H       -1.49370000       1.38120000       1.75150000
H       -1.41680000       0.22080000       0.43290000
H        0.43970000       0.28170000       2.86400000
H       -0.16860000      -2.87750000       3.53600000
H        0.14820000      -3.55190000       1.05970000
H       -2.27120000      -1.69550000       0.70820000
H       -1.36900000      -2.36020000      -0.66800000
H       -2.68870000      -3.88950000       1.28650000
H        1.60530000      -1.60740000       1.56690000
