14
Properties=species:S:1:pos:R:3 gdb_18444=T pbc="F F F"
O       -0.03890000       1.45430000      -0.10520000
C       -0.00070000       0.05780000       0.00620000
C        0.22970000      -0.63340000       1.38550000
N       -1.07820000      -1.38350000       1.27110000
C       -2.14450000      -0.35340000       1.24490000
C       -2.08240000       0.84960000       2.03910000
N       -2.07440000       1.77840000       2.72760000
C       -1.36870000      -0.60040000       0.00210000
H        0.85700000       1.79920000      -0.03160000
H        0.64090000      -0.39330000      -0.76220000
H        1.05640000      -1.34470000       1.39990000
H        0.28690000       0.02720000       2.25390000
H       -3.12950000      -0.81240000       1.25940000
H       -1.85340000      -1.05250000      -0.85690000
