21
Properties=species:S:1:pos:R:3 gdb_68862=T pbc="F F F"
C        0.00420000       1.53380000      -0.04640000
C        0.13340000       0.03420000       0.00470000
C        0.36160000      -0.73720000      -1.29650000
N        1.10780000      -1.97350000      -0.96340000
C        2.46840000      -1.71860000      -0.46950000
C        1.36300000      -1.96970000       0.48920000
C        0.75180000      -0.74550000       1.11530000
C        1.36520000      -0.17430000       2.36710000
N       -0.72120000      -0.75820000       0.93080000
H        0.86650000       1.98980000      -0.54520000
H       -0.89210000       1.82610000      -0.60620000
H       -0.07640000       1.97110000       0.95380000
H       -0.59400000      -1.02150000      -1.74900000
H        0.92300000      -0.14260000      -2.02680000
H        3.18980000      -2.49880000      -0.69390000
H        2.86090000      -0.70420000      -0.53390000
H        1.26670000      -2.92310000       1.00270000
H        2.43800000       0.00170000       2.23470000
H        0.89740000       0.77330000       2.65180000
H        1.24510000      -0.86810000       3.20710000
H       -1.13530000      -0.12210000       1.61200000
