19
Properties=species:S:1:pos:R:3 gdb_17544=T pbc="F F F"
C        0.05970000       1.48020000       0.73510000
C        1.21250000       0.85340000       0.03900000
C        2.17160000       0.01460000       0.87060000
C        1.23630000      -0.86410000       1.70010000
C        1.73240000      -1.99450000       2.55450000
C        1.18340000      -0.74760000       3.20530000
C       -0.04380000      -0.97660000       0.86620000
N       -0.12430000       0.21710000       0.00300000
H        0.04290000       1.46210000       1.82180000
H       -0.44160000       2.33380000       0.28800000
H        1.57030000       1.27310000      -0.89700000
H        2.79400000      -0.59520000       0.20350000
H        2.84610000       0.61660000       1.48840000
H        1.13530000      -2.90010000       2.60010000
H        2.80260000      -2.16890000       2.60350000
H        1.88300000      -0.07550000       3.69260000
H        0.21470000      -0.81070000       3.69180000
H        0.00090000      -1.85070000       0.20460000
H       -0.94710000      -1.06910000       1.47900000
