17
Properties=species:S:1:pos:R:3 gdb_93475=T pbc="F F F"
O        0.05190000       1.41830000       0.12380000
C        0.01410000       0.02600000       0.01650000
C       -1.43210000      -0.50570000       0.01000000
C       -1.47720000      -2.03770000      -0.12000000
C       -0.73860000      -2.51600000      -1.36200000
O       -1.19720000      -3.29850000      -2.15380000
C        0.66900000      -1.92250000      -1.54660000
C        0.71250000      -0.43510000      -1.25940000
O        1.22780000       0.37370000      -1.99860000
H        0.56240000       1.72210000      -0.64460000
H        0.54630000      -0.44000000       0.86650000
H       -1.92400000      -0.18700000       0.93260000
H       -1.97140000      -0.03430000      -0.82000000
H       -0.99070000      -2.49300000       0.75500000
H       -2.50120000      -2.41370000      -0.16180000
H        1.31520000      -2.41990000      -0.80830000
H        1.04800000      -2.13960000      -2.54550000
