13
Properties=species:S:1:pos:R:3 gdb_131042=T pbc="F F F"
O        1.90750000       4.19460000       0.14460000
C        1.07340000       3.33400000       0.12790000
N        1.28250000       1.96410000       0.00520000
C        2.46700000       1.24590000      -0.12700000
C        2.40220000      -0.15820000      -0.23470000
N        3.49740000      -0.87530000      -0.36120000
C        4.63740000      -0.16520000      -0.37680000
N        4.74380000       1.15350000      -0.27870000
N        3.63640000       1.88150000      -0.15060000
H       -0.01480000       3.53040000       0.21190000
H        0.44100000       1.40590000       0.01380000
H        1.44720000      -0.68380000      -0.21620000
H        5.56790000      -0.71360000      -0.47940000
