15
Properties=species:S:1:pos:R:3 gdb_56624=T pbc="F F F"
C       -0.09570000       1.53170000       0.02910000
C        0.07600000       0.00260000       0.01530000
C        0.73810000      -0.44730000      -1.22140000
N        1.24880000      -0.77700000      -2.20350000
N        0.76690000      -0.50750000       1.20930000
C        2.14360000      -0.23910000       1.35620000
O        2.81410000      -0.51920000       2.30630000
C        0.01080000      -1.22760000       2.15330000
O        0.40760000      -1.66390000       3.19290000
H        0.87290000       2.03710000       0.02120000
H       -0.66010000       1.85540000      -0.84880000
H       -0.63810000       1.82630000       0.93070000
H       -0.91850000      -0.45690000       0.01910000
H        2.54200000       0.26710000       0.45690000
H       -1.03450000      -1.34730000       1.80140000
