18
Properties=species:S:1:pos:R:3 gdb_83114=T pbc="F F F"
C        0.08920000       1.58010000      -0.09290000
C       -0.03440000       0.07440000       0.00650000
C       -1.37930000      -0.51760000      -0.40250000
N       -1.90360000      -1.59490000       0.42740000
C       -1.19330000      -2.09050000       1.33870000
O        0.07770000      -1.76930000       1.72710000
C        0.65760000      -0.62520000       1.14790000
C        1.20520000      -0.76510000      -0.25330000
O        1.04390000      -1.98330000      -0.90900000
H        1.08790000       1.92270000       0.19740000
H       -0.08850000       1.91730000      -1.12060000
H       -0.63760000       2.07970000       0.55740000
H       -2.12750000       0.28340000      -0.39850000
H       -1.33350000      -0.89310000      -1.43190000
H       -1.55650000      -2.90880000       1.95670000
H        1.20190000      -0.05660000       1.89460000
H        2.13100000      -0.24090000      -0.48870000
H        1.23950000      -2.68900000      -0.28150000
