17
Properties=species:S:1:pos:R:3 gdb_123869=T pbc="F F F"
C       -0.13640000       1.56710000       0.01220000
C        1.39020000       1.51510000      -0.26950000
N        1.40320000       0.14700000       0.28100000
C       -0.06340000       0.04770000       0.32570000
C        2.24480000      -0.85100000      -0.09130000
C        2.14400000      -2.22000000      -0.06680000
C        3.40460000      -2.63190000      -0.56170000
N        4.20040000      -1.63730000      -0.86630000
O        3.44530000      -0.47780000      -0.56100000
H       -0.40020000       2.17730000       0.87670000
H       -0.76590000       1.84760000      -0.83160000
H        1.65550000       1.55210000      -1.33260000
H        2.02160000       2.22070000       0.27710000
H       -0.46160000      -0.27960000       1.29110000
H       -0.47300000      -0.59460000      -0.46520000
H        1.31520000      -2.82290000       0.26030000
H        3.76370000      -3.64150000      -0.71120000
