20
Properties=species:S:1:pos:R:3 gdb_106464=T pbc="F F F"
C        0.00640000       1.56300000      -0.08580000
C       -0.02120000       0.04580000       0.12910000
C       -1.39830000      -0.56060000      -0.01040000
C       -2.19690000      -0.53080000      -1.34430000
C       -2.94340000      -1.77290000      -0.77250000
C       -1.62870000      -2.09590000      -0.00180000
N       -3.95860000      -1.31830000       0.18520000
C       -3.50940000      -0.45850000       1.00110000
O       -2.24170000       0.01880000       1.02680000
H        1.02000000       1.95450000       0.03900000
H       -0.33180000       1.82710000      -1.09330000
H       -0.64600000       2.06800000       0.63100000
H        0.63540000      -0.45210000      -0.59410000
H        0.36380000      -0.19930000       1.12680000
H       -2.79140000       0.35600000      -1.57200000
H       -1.55050000      -0.78730000      -2.18680000
H       -3.36570000      -2.51020000      -1.45380000
H       -0.89290000      -2.60200000      -0.63070000
H       -1.71630000      -2.59530000       0.96540000
H       -4.12200000      -0.01220000       1.78040000
