22
Properties=species:S:1:pos:R:3 gdb_111495=T pbc="F F F"
C        0.03460000       1.55730000      -0.02300000
C        0.05000000       0.02640000       0.01580000
C       -1.35170000      -0.57730000       0.10020000
C       -1.42080000      -2.12360000      -0.00090000
O       -0.25770000      -2.69140000       0.60050000
C       -2.72190000      -2.46550000       0.75990000
C       -2.89790000      -1.31800000       1.74460000
C       -1.71400000      -0.90190000       2.54080000
N       -2.08730000      -0.16370000       1.31830000
H        1.05170000       1.95870000      -0.07080000
H       -0.51140000       1.92650000      -0.89870000
H       -0.45530000       1.96410000       0.86550000
H        0.54220000      -0.36810000      -0.88140000
H        0.64410000      -0.32580000       0.86440000
H       -1.94750000      -0.18460000      -0.73580000
H       -1.47770000      -2.43670000      -1.05250000
H       -0.33540000      -3.64890000       0.54760000
H       -3.56890000      -2.48890000       0.06440000
H       -2.66560000      -3.44920000       1.23890000
H       -3.89990000      -1.10180000       2.10550000
H       -1.85840000      -0.33760000       3.45800000
H       -0.83900000      -1.54250000       2.52040000
