21
Properties=species:S:1:pos:R:3 gdb_78765=T pbc="F F F"
C       -0.02940000       1.60280000       0.04160000
C        0.10940000       0.08480000       0.02420000
C        1.17650000      -0.60480000      -0.82130000
C        1.33480000      -1.72700000       0.18790000
C        2.45130000      -0.73820000       0.03970000
O        3.68330000      -1.00380000      -0.52410000
C        2.16810000      -0.10430000       1.39700000
C        0.73180000      -0.69610000       1.23650000
C       -0.09820000      -1.03930000       2.44590000
H        0.93030000       2.10450000       0.19450000
H       -0.43770000       1.96170000      -0.90990000
H       -0.71200000       1.93050000       0.83430000
H       -0.86570000      -0.36920000      -0.19670000
H        1.24540000      -0.68960000      -1.89950000
H        1.29290000      -2.80170000       0.08840000
H        3.97730000      -0.21570000      -0.99410000
H        2.71590000      -0.62860000       2.18620000
H        2.27590000       0.97800000       1.53270000
H       -0.37320000      -0.13450000       3.00140000
H       -1.02510000      -1.54900000       2.16000000
H        0.44740000      -1.69520000       3.13290000
