18
Properties=species:S:1:pos:R:3 gdb_96219=T pbc="F F F"
O       -0.01340000       1.40510000       0.16400000
C        0.01200000      -0.00110000       0.04540000
C       -1.43420000      -0.50250000       0.14860000
C       -1.54230000      -1.99340000      -0.17430000
N       -0.93920000      -2.26930000      -1.47640000
C        0.10600000      -1.54400000      -1.92440000
C        0.61580000      -0.46220000      -1.27270000
C        1.73450000       0.23310000      -1.84830000
O        2.27430000       1.22530000      -1.36850000
H        0.85510000       1.70950000      -0.15010000
H        0.59760000      -0.44020000       0.87440000
H       -1.82610000      -0.31110000       1.15100000
H       -2.03750000       0.07560000      -0.55920000
H       -1.04540000      -2.59210000       0.60340000
H       -2.59070000      -2.30400000      -0.20510000
H       -1.19980000      -3.10870000      -1.96410000
H        0.53210000      -1.87010000      -2.87060000
H        2.11240000      -0.19380000      -2.80510000
