14
Properties=species:S:1:pos:R:3 gdb_20606=T pbc="F F F"
C       -0.01720000       1.57520000       0.03790000
C        0.02070000       0.08100000      -0.00100000
C        0.10100000      -0.76850000      -1.07050000
N        0.21580000      -0.54460000      -2.42340000
O        0.13190000      -2.05120000      -0.68160000
N        0.07420000      -2.09760000       0.73420000
C        0.00690000      -0.83580000       1.08490000
O       -0.05880000      -0.46900000       2.37650000
H        0.52690000       2.00780000      -0.80850000
H       -1.03880000       1.97550000       0.01610000
H        0.45240000       1.94550000       0.95350000
H       -0.26390000       0.27940000      -2.75470000
H        0.01350000      -1.35930000      -2.98620000
H       -0.02480000      -1.27500000       2.90880000
