17
Properties=species:S:1:pos:R:3 gdb_65960=T pbc="F F F"
O       -0.09620000       1.33450000      -0.38610000
C       -0.01250000      -0.02170000      -0.02790000
C        0.05590000      -0.38310000       1.49510000
N       -1.20300000      -1.17930000       1.39400000
C       -1.37600000      -0.73330000       0.00240000
C       -2.64400000      -0.15740000      -0.54450000
C       -2.08910000      -1.45860000      -1.08960000
C        1.00110000      -0.71690000      -0.83520000
N        1.81170000      -1.25060000      -1.46390000
H        0.79380000       1.69770000      -0.45820000
H        0.93940000      -0.93470000       1.82370000
H       -0.07540000       0.51220000       2.11000000
H       -0.99830000      -2.17380000       1.43040000
H       -3.51260000      -0.20680000       0.10290000
H       -2.56710000       0.73310000      -1.15750000
H       -1.64080000      -1.46300000      -2.07800000
H       -2.59690000      -2.37990000      -0.82240000
