12
Properties=species:S:1:pos:R:3 gdb_3380=T pbc="F F F"
N        0.04260000      -1.15350000       0.00650000
C        0.04410000       0.00310000       0.01580000
C        0.04360000       1.43970000       0.04260000
C        0.44400000       2.23790000       1.28400000
C        1.63120000       1.55630000       1.95730000
O        2.37650000       1.55180000       0.70240000
C        1.32470000       2.25160000       0.06550000
H       -0.76080000       1.90330000      -0.52110000
H       -0.20970000       2.98340000       1.71430000
H        2.13300000       2.19410000       2.69090000
H        1.48420000       0.54910000       2.35820000
H        1.57020000       2.99870000      -0.68000000
