14
Properties=species:S:1:pos:R:3 gdb_25579=T pbc="F F F"
O       -0.24630000       0.22720000       0.48800000
C        0.04770000       1.14080000      -0.23370000
C        1.37230000       1.87280000      -0.13030000
O        1.37110000       2.89240000      -1.13130000
C        2.47040000       3.63230000      -1.17830000
N        3.53720000       3.56140000      -0.44990000
C        4.33640000       4.58690000      -0.96260000
C        3.68800000       5.20570000      -1.96980000
O        2.46010000       4.58750000      -2.12150000
H       -0.62510000       1.52120000      -1.03240000
H        1.49070000       2.30980000       0.86800000
H        2.20570000       1.17800000      -0.28620000
H        5.31510000       4.79240000      -0.55990000
H        3.89600000       6.02010000      -2.64020000
