13
Properties=species:S:1:pos:R:3 gdb_48471=T pbc="F F F"
O       -0.38530000       0.59130000       0.73490000
C        0.32420000       0.88780000      -0.18290000
C        1.42280000       1.98370000      -0.08880000
C        1.50540000       2.62990000       1.32110000
O        2.78980000       2.18490000       1.81930000
C        3.33160000       1.44510000       0.84080000
N        2.71240000       1.26860000      -0.25790000
C        1.20900000       2.95080000      -1.16870000
N        0.99270000       3.71000000      -2.01250000
H        0.29450000       0.37980000      -1.16470000
H        1.49810000       3.71980000       1.30250000
H        0.71940000       2.24600000       1.97370000
H        4.30820000       1.03260000       1.06760000
