19
Properties=species:S:1:pos:R:3 gdb_105311=T pbc="F F F"
C        0.09570000       1.51730000      -0.09870000
C        0.00300000       0.00440000       0.11530000
C       -1.42960000      -0.54680000       0.03720000
C       -2.16540000      -0.51410000      -1.37450000
C       -2.27630000      -2.03860000      -1.31240000
N       -0.88660000      -2.54650000      -1.22180000
C       -1.58380000      -2.09190000      -0.00060000
C       -2.27780000       0.02540000       1.07910000
N       -2.94280000       0.47550000       1.91160000
H        1.13670000       1.84810000      -0.04160000
H       -0.29040000       1.80700000      -1.08180000
H       -0.47300000       2.06470000       0.65940000
H        0.58560000      -0.52970000      -0.64000000
H        0.42320000      -0.25960000       1.09340000
H       -3.12430000       0.00230000      -1.33030000
H       -1.56380000      -0.12300000      -2.19780000
H       -3.07330000      -2.65850000      -1.70140000
H       -0.92850000      -3.56510000      -1.22480000
H       -1.72370000      -2.74190000       0.85360000
