21
Properties=species:S:1:pos:R:3 gdb_119626=T pbc="F F F"
O       -0.13240000       1.48440000      -0.17550000
C       -0.03090000       0.06950000      -0.09350000
C       -1.43940000      -0.48060000       0.11250000
C       -1.47130000      -1.98160000       0.19400000
C       -1.50410000      -2.86730000      -1.03220000
C       -2.67040000      -2.85300000      -0.05400000
C       -2.66090000      -3.89390000       1.05290000
C       -1.22320000      -3.78800000       1.60990000
O       -0.76560000      -2.46950000       1.31740000
H        0.75670000       1.84450000      -0.23840000
H        0.40030000      -0.35490000      -1.01450000
H        0.60820000      -0.24300000       0.74440000
H       -1.85240000      -0.05440000       1.03380000
H       -2.07410000      -0.14700000      -0.71550000
H       -1.66250000      -2.38190000      -1.98940000
H       -0.86090000      -3.74000000      -1.07890000
H       -3.61840000      -2.43540000      -0.37350000
H       -3.39860000      -3.62200000       1.81530000
H       -2.88770000      -4.90920000       0.71360000
H       -1.16180000      -3.93380000       2.69200000
H       -0.56710000      -4.53060000       1.13450000
