18
Properties=species:S:1:pos:R:3 gdb_12832=T pbc="F F F"
C       -0.10180000       1.61120000      -0.11970000
C        0.04270000       0.10260000       0.01200000
C        0.74740000      -0.57910000      -1.17740000
C        2.17790000      -0.85990000      -0.60510000
C        1.90560000      -1.07190000       0.88640000
C        0.75910000      -0.47920000       1.19450000
C       -0.57580000      -0.66550000       1.86740000
O       -1.20970000      -0.46830000       0.56690000
H        0.84120000       2.06680000      -0.44030000
H       -0.86550000       1.84510000      -0.86910000
H       -0.40250000       2.06930000       0.82680000
H        0.24730000      -1.52970000      -1.38500000
H        0.75580000       0.01710000      -2.09490000
H        2.63570000      -1.74560000      -1.05730000
H        2.86270000      -0.02370000      -0.80090000
H        2.50820000      -1.71760000       1.51440000
H       -0.78240000      -1.65180000       2.29570000
H       -0.88170000       0.11280000       2.57890000
