17
Properties=species:S:1:pos:R:3 gdb_40066=T pbc="F F F"
C        0.05310000       1.51320000       0.01660000
O        1.19960000       0.65130000      -0.00670000
C       -0.09170000       0.05800000       0.02700000
C       -0.48180000      -0.82320000       1.22340000
C       -1.09540000      -2.01350000       0.45630000
O       -2.37590000      -1.62880000      -0.04410000
C       -2.08030000      -0.81060000      -1.18930000
C       -0.53830000      -0.78600000      -1.16630000
O       -0.27410000      -2.11920000      -0.69260000
H       -0.09140000       2.07690000       0.93720000
H       -0.12460000       2.07630000      -0.89980000
H        0.41140000      -1.12070000       1.77910000
H       -1.19750000      -0.35630000       1.90200000
H       -1.17240000      -2.96670000       0.97690000
H       -2.46780000      -1.28880000      -2.09530000
H       -2.53230000       0.18050000      -1.07690000
H       -0.02670000      -0.58940000      -2.10610000
