18
Properties=species:S:1:pos:R:3 gdb_11546=T pbc="F F F"
C        0.11070000       1.33600000       0.15740000
N       -0.25170000       0.03060000      -0.36320000
C        0.67550000      -0.70460000      -1.07810000
O        1.74440000      -0.25920000      -1.45150000
N        0.26370000      -2.00740000      -1.33780000
C        1.02290000      -2.80470000      -2.25730000
C        2.20810000      -3.56630000      -1.73490000
C        0.94140000      -4.29990000      -2.10070000
H        0.84850000       1.76930000      -0.51820000
H       -0.77070000       1.98290000       0.19470000
H        0.55470000       1.28700000       1.16100000
H       -0.93930000      -0.48920000       0.15910000
H       -0.73460000      -2.15970000      -1.35680000
H        1.10670000      -2.40990000      -3.26760000
H        3.07190000      -3.65920000      -2.38250000
H        2.43730000      -3.45280000      -0.68250000
H        0.33290000      -4.68270000      -1.28860000
H        0.92580000      -4.90490000      -3.00000000
