16
Properties=species:S:1:pos:R:3 gdb_1677=T pbc="F F F"
C       -0.00580000       1.55370000       0.11620000
C       -0.01920000       0.02830000       0.00340000
C        0.72300000      -0.46280000      -1.25550000
O        2.05390000      -0.01910000      -1.26260000
C        0.72920000      -1.99790000      -1.33830000
N       -0.46450000      -2.60570000      -1.54300000
O        1.77640000      -2.61150000      -1.20610000
H        1.02230000       1.92290000       0.11440000
H       -0.53170000       2.01720000      -0.72630000
H       -0.49260000       1.88430000       1.03860000
H        0.46700000      -0.41910000       0.87870000
H       -1.05210000      -0.34270000      -0.01090000
H        0.20500000      -0.06800000      -2.14600000
H        2.58100000      -0.83210000      -1.17210000
H       -1.30510000      -2.08380000      -1.71740000
H       -0.49010000      -3.60910000      -1.62260000
