18
Properties=species:S:1:pos:R:3 gdb_37728=T pbc="F F F"
C       -0.01200000       1.57670000      -0.20880000
C        1.32070000       2.23220000       0.21460000
N        2.31650000       1.30440000       0.74660000
C        2.48000000      -0.03700000       0.20110000
C        1.93730000       0.17280000       1.58300000
C        0.55470000      -0.49320000       1.38440000
O        0.91910000      -1.72040000       0.65720000
C        1.25960000      -0.76570000      -0.41070000
C        0.04370000       0.07990000       0.04020000
H       -0.85440000       2.00430000       0.34680000
H       -0.22060000       1.75930000      -1.26910000
H        1.79080000       2.74400000      -0.63130000
H        1.15560000       2.99030000       0.98690000
H        3.48860000      -0.36850000      -0.02180000
H        2.49940000       0.01410000       2.49720000
H       -0.07800000      -0.66430000       2.25490000
H        1.35590000      -1.21860000      -1.39700000
H       -0.87630000      -0.43260000      -0.24330000
