15
Properties=species:S:1:pos:R:3 gdb_81640=T pbc="F F F"
O        0.04310000       1.46370000      -0.11580000
C        0.10480000       0.08370000      -0.06900000
C        0.07300000      -0.60680000       1.33180000
O       -1.34790000      -0.17880000       1.45160000
C       -1.23490000      -0.70840000       0.06480000
C       -0.46560000      -1.89710000       0.67870000
O        0.39850000      -2.64130000      -0.15340000
C        0.39190000      -3.98980000      -0.04070000
O        1.08900000      -4.69120000      -0.70480000
H       -0.61640000       1.72120000       0.54440000
H        0.83540000      -0.27180000      -0.79470000
H        0.71280000      -0.47780000       2.20440000
H       -2.13290000      -0.69870000      -0.55230000
H       -1.06260000      -2.52320000       1.34520000
H       -0.32250000      -4.34950000       0.72420000
