23
Properties=species:S:1:pos:R:3 gdb_40509=T pbc="F F F"
C       -0.12270000       1.29390000      -0.41060000
C        1.25590000       1.03880000       0.14430000
C        0.24650000      -0.08510000       0.07960000
C       -0.33380000      -0.69760000       1.32020000
C        0.29220000      -2.03810000       1.80050000
C       -1.12900000      -2.65400000       1.96610000
C       -1.77040000      -1.36370000       1.38530000
C       -2.20510000      -0.32660000       2.44430000
C       -0.75200000       0.23010000       2.50580000
H       -0.80650000       1.89210000       0.18210000
H       -0.22810000       1.43950000      -1.48020000
H        2.09720000       1.02050000      -0.53970000
H        1.48750000       1.45120000       1.12090000
H        0.42180000      -0.81390000      -0.70950000
H        0.87360000      -2.52920000       1.01430000
H        0.91680000      -1.98260000       2.69750000
H       -1.29700000      -3.55130000       1.36570000
H       -1.42490000      -2.87920000       2.99530000
H       -2.40700000      -1.48650000       0.50710000
H       -2.91250000       0.40750000       2.04900000
H       -2.61800000      -0.72980000       3.37430000
H       -0.21350000       0.02470000       3.43550000
H       -0.67540000       1.30230000       2.31020000
