20
Properties=species:S:1:pos:R:3 gdb_80704=T pbc="F F F"
C       -0.14840000       1.57060000       0.03990000
C        0.01990000       0.07940000       0.21550000
N        1.16620000      -0.72060000      -0.28450000
C        2.41290000       0.06960000      -0.00900000
C        2.15310000       0.03740000       1.52930000
C        2.18400000       1.29180000       2.35900000
O        1.25300000       1.72850000       2.98890000
C        0.82750000      -0.65530000       1.21520000
C        0.31330000      -1.82960000       1.99430000
H        0.73820000       2.15480000       0.28610000
H       -0.42510000       1.79520000      -0.99620000
H       -0.95290000       1.92570000       0.69100000
H       -0.89620000      -0.45770000      -0.02900000
H        3.28930000      -0.50300000      -0.31480000
H        2.44920000       1.05090000      -0.49120000
H        2.86470000      -0.65930000       1.99160000
H        3.17140000       1.81220000       2.36350000
H       -0.07930000      -1.49800000       2.96250000
H       -0.49180000      -2.33600000       1.45480000
H        1.10730000      -2.56080000       2.18340000
