20
Properties=species:S:1:pos:R:3 gdb_52239=T pbc="F F F"
O       -0.06130000      -0.17700000      -0.12940000
C        0.01820000       1.02140000      -0.04710000
C        1.29860000       1.81750000      -0.11720000
C        1.25700000       2.87780000      -1.23380000
C        2.46960000       3.79560000      -1.18480000
C        2.55320000       5.05520000      -2.09390000
C        2.73480000       5.85180000      -0.80400000
C        1.59650000       5.64010000       0.10500000
N        2.65990000       4.61360000       0.07730000
H       -0.89820000       1.64570000       0.08670000
H        1.43010000       2.33350000       0.84430000
H        2.13660000       1.12690000      -0.24920000
H        1.22890000       2.38660000      -2.21470000
H        0.32960000       3.45900000      -1.15760000
H        3.37430000       3.18930000      -1.29170000
H        3.42670000       5.05130000      -2.74770000
H        1.67030000       5.30980000      -2.68900000
H        3.48480000       6.61770000      -0.63610000
H        1.58420000       6.18820000       1.04180000
H        0.61100000       5.42550000      -0.30120000
