19
Properties=species:S:1:pos:R:3 gdb_68491=T pbc="F F F"
O        0.00120000       1.42970000      -0.06510000
C        0.00980000       0.02470000       0.04020000
C        0.22600000      -0.64510000       1.43230000
C       -0.91730000      -1.63320000       1.05590000
C       -1.41340000      -0.57840000       0.03000000
O       -0.45930000      -2.86340000       0.51420000
C        0.16850000      -2.82050000      -0.74110000
O        1.26560000      -1.94620000      -0.81080000
C        0.93440000      -0.58370000      -1.03120000
H        0.90470000       1.75050000       0.03350000
H        1.19920000      -1.08620000       1.65230000
H       -0.08180000       0.03420000       2.23140000
H       -1.60790000      -1.91400000       1.85160000
H       -2.10260000       0.11730000       0.51410000
H       -1.84810000      -0.90790000      -0.91640000
H        0.55810000      -3.82820000      -0.90100000
H       -0.55370000      -2.57270000      -1.53700000
H        0.48020000      -0.44590000      -2.02500000
H        1.89270000      -0.05110000      -1.02240000
