27
Properties=species:S:1:pos:R:3 gdb_121999=T pbc="F F F"
C       -0.10680000       1.61860000       0.14790000
C       -0.00530000       0.09700000       0.00400000
C        0.77520000      -0.55540000       1.15180000
C        0.83270000      -2.09510000       1.12490000
C        1.57820000      -2.62100000      -0.11070000
C        1.45130000      -2.61930000       2.43600000
C        1.39060000      -4.13910000       2.62290000
C        1.90290000      -4.58200000       3.98720000
O        1.82440000      -5.99900000       4.04820000
H        0.88630000       2.08170000       0.16270000
H       -0.66800000       2.06270000      -0.68040000
H       -0.61250000       1.89620000       1.07960000
H       -1.01470000      -0.33440000      -0.03750000
H        0.46680000      -0.14080000      -0.95640000
H        1.80100000      -0.15800000       1.16410000
H        0.32110000      -0.24050000       2.10160000
H       -0.20320000      -2.46480000       1.07830000
H        1.58730000      -3.71390000      -0.14330000
H        1.11530000      -2.27460000      -1.03890000
H        2.62070000      -2.27860000      -0.11040000
H        2.49700000      -2.28360000       2.49600000
H        0.93300000      -2.13970000       3.27790000
H        0.35790000      -4.49270000       2.50920000
H        1.98290000      -4.65380000       1.85880000
H        2.94070000      -4.23500000       4.12470000
H        1.29810000      -4.11550000       4.78240000
H        2.14810000      -6.28100000       4.90850000
