15
Properties=species:S:1:pos:R:3 gdb_131480=T pbc="F F F"
O        0.14980000       1.41790000       0.10570000
C        0.04190000       0.03940000       0.07840000
C       -0.47180000      -0.77000000       1.21960000
C       -1.31070000      -0.67910000      -0.06190000
C       -2.54190000       0.10120000      -0.06600000
C       -3.71430000      -0.02040000      -0.75950000
N       -4.51940000       1.02160000      -0.37840000
N       -3.96830000       1.75800000       0.46280000
O       -2.63030000       1.18120000       0.71220000
H       -0.60810000       1.78820000       0.57540000
H        0.84650000      -0.38030000      -0.51590000
H       -0.01260000      -1.72600000       1.44540000
H       -0.85900000      -0.23450000       2.08000000
H       -1.34390000      -1.55080000      -0.70510000
H       -4.02810000      -0.75570000      -1.47940000
