20
Properties=species:S:1:pos:R:3 gdb_13074=T pbc="F F F"
C       -0.53580000       1.43240000      -0.08820000
C        0.07970000       0.04020000      -0.07040000
C        1.49430000      -0.17750000      -0.67650000
C        1.79340000      -1.18540000       0.46570000
C        0.59380000      -0.59990000       1.26470000
C        1.01090000       0.40650000       2.35260000
C        1.65510000      -0.24140000       3.48960000
C        2.18270000      -0.80010000       4.41430000
H        0.13040000       2.17920000       0.35640000
H       -0.73940000       1.74920000      -1.11720000
H       -1.48520000       1.46250000       0.45880000
H       -0.61980000      -0.66480000      -0.53410000
H        1.55080000      -0.54240000      -1.70510000
H        2.11040000       0.72470000      -0.60190000
H        1.61560000      -2.21990000       0.16040000
H        2.77260000      -1.13240000       0.94780000
H       -0.07760000      -1.33520000       1.71650000
H        1.69440000       1.15560000       1.93170000
H        0.13030000       0.96140000       2.70080000
H        2.64890000      -1.28230000       5.23710000
