16
Properties=species:S:1:pos:R:3 gdb_56370=T pbc="F F F"
C        0.12700000       1.48340000       0.01450000
C       -0.01850000      -0.05480000       0.04380000
C        0.55680000      -0.57460000       1.31370000
N        1.07670000      -0.98760000       2.25950000
C       -1.45190000      -0.41960000       0.00750000
N       -2.57450000      -0.68510000      -0.02900000
N        0.60690000      -0.60900000      -1.16210000
C        2.04020000      -0.90680000      -1.14950000
C        1.03540000      -2.00640000      -1.17920000
H        1.18710000       1.74270000       0.05320000
H       -0.30270000       1.85460000      -0.91700000
H       -0.38470000       1.93720000       0.86500000
H        2.57070000      -0.61250000      -2.04930000
H        2.58970000      -0.77410000      -0.22060000
H        0.92590000      -2.59090000      -0.26900000
H        0.81550000      -2.53600000      -2.10010000
