23
Properties=species:S:1:pos:R:3 gdb_90767=T pbc="F F F"
C       -0.04950000       1.57190000      -0.03820000
C        0.15460000       0.05770000      -0.04450000
C        1.11180000      -0.46660000      -1.13500000
C        1.44660000      -1.90670000      -0.69220000
C        1.41940000      -1.89360000       0.85010000
C        2.71930000      -1.41110000       1.56930000
O        3.96460000      -1.54120000       0.92430000
C        2.10350000       0.00260000       1.74390000
C        0.72740000      -0.54480000       1.25210000
H        0.89200000       2.10280000       0.14040000
H       -0.44630000       1.91990000      -0.99790000
H       -0.75530000       1.87590000       0.74220000
H       -0.82280000      -0.41900000      -0.21000000
H        0.67330000      -0.42260000      -2.13660000
H        2.01620000       0.15640000      -1.16600000
H        0.67540000      -2.59150000      -1.06010000
H        2.40140000      -2.27090000      -1.08570000
H        1.00560000      -2.82010000       1.25400000
H        2.84330000      -1.92060000       2.52900000
H        3.94210000      -1.01790000       0.11640000
H        2.13540000       0.42540000       2.75090000
H        2.55170000       0.73360000       1.06230000
H       -0.01710000      -0.60840000       2.04840000
