17
Properties=species:S:1:pos:R:3 gdb_45066=T pbc="F F F"
O        0.00160000      -0.01080000      -0.20830000
C       -0.03400000       1.16190000       0.03420000
C       -1.29210000       1.98870000       0.32630000
C       -0.79760000       3.26140000       0.98200000
C        0.08550000       3.10310000       2.19520000
C        0.71380000       3.33640000       0.84730000
C        1.20830000       2.10900000       0.08990000
C        2.39840000       1.46810000       0.62300000
C        3.37830000       0.94280000       1.07830000
H       -1.78900000       2.19660000      -0.63070000
H       -1.98930000       1.39740000       0.92730000
H       -1.39670000       4.15960000       0.89090000
H        0.11520000       3.92080000       2.90610000
H        0.18170000       2.12020000       2.64850000
H        1.21160000       4.27950000       0.65840000
H        1.39440000       2.39220000      -0.95830000
H        4.24360000       0.47300000       1.47540000
