16
Properties=species:S:1:pos:R:3 gdb_24366=T pbc="F F F"
C       -0.01240000       1.49810000       0.01750000
N        1.30530000       2.16660000      -0.04570000
C        2.24080000       1.45790000      -0.81580000
C        2.06350000       0.13410000      -1.12650000
O        3.10200000      -0.31530000      -1.88870000
C        3.95110000       0.73700000      -2.03660000
C        3.48450000       1.84940000      -1.40020000
C        1.02980000      -0.67480000      -0.54830000
C        0.04580000      -0.01780000       0.09270000
H       -0.56040000       1.91470000       0.86660000
H       -0.57100000       1.78960000      -0.88710000
H        1.66560000       2.41970000       0.86830000
H        4.82520000       0.54820000      -2.63770000
H        3.95710000       2.81850000      -1.37000000
H        1.10270000      -1.75640000      -0.56950000
H       -0.73000000      -0.54650000       0.63570000
