19
Properties=species:S:1:pos:R:3 gdb_73362=T pbc="F F F"
C        0.05360000       1.49180000       0.01270000
C       -0.03460000      -0.01940000       0.00330000
O        0.56070000      -0.49880000      -1.19690000
C        0.03650000      -1.78650000      -1.51420000
C       -1.25320000      -1.93350000      -0.71800000
C       -1.18340000      -1.94700000       0.79950000
C        0.17420000      -1.81310000       1.47630000
O        0.66830000      -0.51970000       1.13470000
C       -1.43250000      -0.66400000       0.06200000
H        1.10210000       1.79440000      -0.03260000
H       -0.46860000       1.90510000      -0.85290000
H       -0.38690000       1.88920000       0.92970000
H       -0.15750000      -1.82400000      -2.59200000
H        0.77320000      -2.56700000      -1.27630000
H       -2.09530000      -2.43050000      -1.18570000
H       -1.97930000      -2.45280000       1.33380000
H        0.08000000      -1.86950000       2.56670000
H        0.88520000      -2.58870000       1.15820000
H       -2.33540000      -0.07000000       0.10880000
