17
Properties=species:S:1:pos:R:3 gdb_85592=T pbc="F F F"
C        0.00940000       1.45210000      -0.18920000
N        0.07460000      -0.00030000      -0.21740000
C       -1.18690000      -0.70660000      -0.06750000
C       -1.11720000      -2.15920000      -0.52340000
O       -2.10070000      -2.79210000      -0.80890000
C        0.28800000      -2.73820000      -0.59390000
N        1.19140000      -1.98150000       0.25520000
C        1.25950000      -0.59680000       0.17850000
O        2.27490000       0.01970000       0.44660000
H        1.01730000       1.84310000      -0.31710000
H       -0.63450000       1.80740000      -1.00020000
H       -0.39090000       1.82700000       0.76350000
H       -1.54140000      -0.70750000       0.97860000
H       -1.95880000      -0.20650000      -0.65960000
H        0.25080000      -3.78210000      -0.27300000
H        0.58650000      -2.73190000      -1.65660000
H        2.10630000      -2.38020000       0.40680000
