14
Properties=species:S:1:pos:R:3 gdb_21928=T pbc="F F F"
O       -0.02600000       1.48020000       0.00570000
C        0.04760000       0.06120000       0.01680000
C       -1.34540000      -0.47610000       0.00550000
C       -2.53150000       0.22580000       0.05860000
N       -3.53190000      -0.68470000       0.02340000
N       -3.08030000      -1.96300000      -0.05000000
C       -1.76400000      -1.82510000      -0.05990000
O       -0.92970000      -2.88720000      -0.12640000
H        0.87040000       1.82400000       0.04800000
H        0.60310000      -0.31760000      -0.85690000
H        0.58600000      -0.30100000       0.90850000
H       -2.71320000       1.28630000       0.11390000
H       -4.52210000      -0.51960000       0.03760000
H       -1.48150000      -3.67820000      -0.16660000
