23
Properties=species:S:1:pos:R:3 gdb_89417=T pbc="F F F"
C        0.61090000       1.44790000      -0.33230000
C        0.05370000       0.08370000       0.07570000
O        0.11190000      -0.82040000      -1.04070000
C        0.99720000      -1.88670000      -0.78420000
C        0.60480000      -3.13940000      -1.51530000
C        2.43790000      -1.51820000      -0.51360000
C        1.47500000      -1.80580000       0.63150000
C        0.74770000      -0.63750000       1.28120000
C        1.61550000       0.24300000       2.18570000
H        1.68040000       1.41670000      -0.55580000
H        0.09080000       1.78930000      -1.23170000
H        0.44710000       2.18890000       0.45650000
H       -1.01120000       0.22220000       0.30400000
H        0.61160000      -2.97290000      -2.59770000
H        1.30270000      -3.95140000      -1.29230000
H       -0.40330000      -3.45620000      -1.22840000
H        3.19560000      -2.26970000      -0.71230000
H        2.76170000      -0.50090000      -0.70100000
H        1.63740000      -2.69870000       1.22630000
H       -0.04640000      -1.06870000       1.90360000
H        2.46590000       0.66780000       1.64500000
H        1.04160000       1.06900000       2.61810000
H        2.01560000      -0.34900000       3.01510000
