19
Properties=species:S:1:pos:R:3 gdb_37806=T pbc="F F F"
C       -0.00370000       1.55120000       0.00130000
C        1.45780000       1.95320000      -0.05960000
C        2.37280000       1.27460000       0.94910000
C        1.86210000       0.63160000       2.23730000
O        1.25440000      -0.63470000       2.08250000
C        0.01110000      -0.63740000       1.42090000
C        0.04790000       0.00090000       0.01580000
O        1.26750000      -0.35660000      -0.63620000
C        2.18160000       0.68920000      -0.43490000
H       -0.54040000       1.94490000       0.87020000
H       -0.52090000       1.90680000      -0.89540000
H        1.72300000       2.92330000      -0.46310000
H        3.33010000       1.77360000       1.07780000
H        2.71340000       0.45420000       2.90130000
H        1.17980000       1.32410000       2.76070000
H       -0.25540000      -1.69470000       1.33000000
H       -0.77030000      -0.14200000       2.02390000
H       -0.77510000      -0.42560000      -0.56770000
H        3.00880000       0.63850000      -1.13270000
