13
Properties=species:S:1:pos:R:3 gdb_131215=T pbc="F F F"
O        0.04090000       1.36790000       0.01020000
C       -0.01190000       0.02350000       0.00310000
C       -1.17980000      -0.66540000       0.00330000
C       -1.18320000      -2.11940000      -0.00480000
O       -2.16260000      -2.84540000      -0.00570000
N        0.10510000      -2.66790000      -0.01220000
N        1.28390000      -2.01170000      -0.01270000
C        1.22130000      -0.72640000      -0.00540000
O        2.35600000       0.02010000      -0.00570000
H        0.97000000       1.63550000       0.00920000
H       -2.13590000      -0.15920000       0.00950000
H        0.17200000      -3.67540000      -0.01830000
H        3.11070000      -0.58330000      -0.01050000
