20
Properties=species:S:1:pos:R:3 gdb_96933=T pbc="F F F"
C       -0.33100000       1.34950000      -0.51010000
N       -0.27170000      -0.10030000      -0.41040000
C        0.69770000      -0.71830000      -0.91990000
C        0.88370000      -2.22940000      -0.90890000
C        2.10090000      -2.46850000      -1.78230000
C        2.07330000      -1.98000000      -3.22640000
C        0.80730000      -1.67760000      -3.99720000
C        2.61110000      -1.09570000      -2.13290000
O        1.74450000      -0.12080000      -1.59100000
H        0.26250000       1.76290000      -1.33390000
H       -1.37500000       1.65470000      -0.63280000
H        0.02640000       1.80000000       0.42460000
H        1.06570000      -2.56950000       0.11550000
H       -0.03030000      -2.72040000      -1.25290000
H        2.77890000      -3.27070000      -1.51840000
H        2.86050000      -2.42370000      -3.83240000
H        0.04760000      -1.18970000      -3.38270000
H        1.02130000      -1.01340000      -4.84080000
H        0.36970000      -2.59770000      -4.39890000
H        3.64840000      -0.78620000      -2.09140000
