21
Properties=species:S:1:pos:R:3 gdb_87863=T pbc="F F F"
O       -0.76320000       1.30990000      -0.63740000
C       -0.41480000      -0.02240000      -0.39360000
C       -0.14550000      -0.48760000       1.01550000
C       -1.42370000      -0.88880000       0.31330000
C       -2.77840000      -0.30880000       0.72690000
C       -3.78670000      -1.07510000      -0.12000000
C       -3.50560000      -1.17650000      -1.59890000
C       -3.10140000      -2.30510000      -0.68010000
C       -1.66660000      -2.32020000      -0.17070000
H        0.00940000       1.85770000      -0.46520000
H        0.15920000      -0.49110000      -1.19450000
H        0.62210000      -1.23740000       1.18140000
H       -0.23140000       0.25810000       1.80020000
H       -2.96810000      -0.50400000       1.79020000
H       -2.81180000       0.77330000       0.57450000
H       -4.81790000      -1.11130000       0.21370000
H       -4.35280000      -1.35580000      -2.25230000
H       -2.74050000      -0.53860000      -2.02990000
H       -3.62690000      -3.24990000      -0.76560000
H       -0.93590000      -2.63050000      -0.92730000
H       -1.58240000      -3.02590000       0.66650000
