16
Properties=species:S:1:pos:R:3 gdb_119821=T pbc="F F F"
C       -0.55920000       0.54830000       0.18520000
O        0.29500000       0.34680000       1.29540000
C        1.40570000      -0.46680000       1.01270000
C        1.04400000      -1.90840000       0.78340000
N        1.36820000      -2.62110000      -0.21750000
C        0.81220000      -3.94390000       0.04400000
C        0.09780000      -3.82360000       1.38550000
O       -0.51460000      -4.60630000       2.03770000
O        0.29670000      -2.50130000       1.78160000
H       -1.01890000      -0.38840000      -0.16070000
H       -1.34830000       1.22690000       0.51470000
H       -0.02070000       1.00290000      -0.65960000
H        1.96260000      -0.12770000       0.12810000
H        2.06060000      -0.40340000       1.88860000
H        0.11230000      -4.24860000      -0.74130000
H        1.59520000      -4.70850000       0.09060000
