18
Properties=species:S:1:pos:R:3 gdb_4817=T pbc="F F F"
C        0.09130000       1.42360000       0.08880000
N       -0.22680000       0.02390000      -0.13480000
C        0.49870000      -0.66060000      -1.12050000
C        0.64940000      -2.03160000      -1.22220000
N        1.38640000      -2.30050000      -2.35930000
C        1.71880000      -3.62210000      -2.83700000
C        1.69900000      -1.12360000      -2.97540000
C        1.17250000      -0.08440000      -2.23770000
H        1.15700000       1.61440000       0.29940000
H       -0.18550000       2.01500000      -0.79050000
H       -0.50090000       1.79290000       0.93030000
H       -0.27330000      -0.49640000       0.72990000
H        0.29120000      -2.82970000      -0.59190000
H        0.82740000      -4.16720000      -3.17000000
H        2.40660000      -3.53580000      -3.68050000
H        2.20860000      -4.20790000      -2.05170000
H        2.27560000      -1.11700000      -3.88700000
H        1.26750000       0.96410000      -2.46950000
