21
Properties=species:S:1:pos:R:3 gdb_95347=T pbc="F F F"
C        0.02100000       1.51360000       0.04120000
C        0.04330000      -0.00520000      -0.01080000
C        0.71830000      -0.54420000      -1.27010000
O        0.73660000      -1.96430000      -1.28920000
C        1.17970000      -2.54410000      -0.08910000
C        2.66570000      -2.46870000       0.37410000
C        2.12490000      -2.32660000       1.82740000
C        0.76650000      -1.87610000       1.24780000
O        0.76690000      -0.46080000       1.13240000
H        1.03830000       1.91420000      -0.00840000
H       -0.55710000       1.92230000      -0.79300000
H       -0.43170000       1.85040000       0.97720000
H       -0.98640000      -0.40060000       0.02690000
H        0.17350000      -0.23790000      -2.16830000
H        1.73940000      -0.13470000      -1.32850000
H        0.84720000      -3.58580000      -0.11870000
H        3.30260000      -3.32330000       0.13920000
H        3.15770000      -1.55360000       0.03970000
H        2.04920000      -3.28750000       2.34260000
H        2.61140000      -1.60130000       2.48080000
H       -0.16160000      -2.21670000       1.72820000
