17
Properties=species:S:1:pos:R:3 gdb_34540=T pbc="F F F"
N        0.00210000      -1.16860000       0.11210000
C       -0.03160000      -0.01120000       0.06260000
C       -0.02900000       1.41410000      -0.00390000
C       -1.18300000       2.10090000       0.05240000
C       -1.19940000       3.57660000      -0.00950000
N       -0.28480000       4.29470000       0.92770000
C        0.02620000       4.27540000      -0.50170000
C        1.20240000       3.42500000      -0.93040000
C        1.31090000       2.11600000      -0.12320000
H       -2.12870000       1.57480000       0.13030000
H       -2.16330000       4.03600000      -0.20420000
H       -0.70460000       5.18360000       1.18820000
H       -0.12840000       5.18900000      -1.07220000
H        1.08270000       3.19300000      -1.99590000
H        2.13550000       3.98960000      -0.82870000
H        1.68100000       2.33920000       0.88260000
H        2.04100000       1.44960000      -0.59020000
