15
Properties=species:S:1:pos:R:3 gdb_132747=T pbc="F F F"
C       -0.01710000       1.52290000       0.05160000
C       -0.00130000       0.01940000       0.02050000
C        0.06950000      -0.65320000      -1.20800000
O        0.12360000       0.05090000      -2.36950000
C        0.08170000      -2.04260000      -1.18980000
F        0.14970000      -2.67600000      -2.37370000
C        0.02610000      -2.73990000       0.00160000
C       -0.04210000      -1.98060000       1.16550000
N       -0.05550000      -0.64540000       1.17890000
H        0.88510000       1.93680000      -0.41190000
H       -0.86850000       1.92050000      -0.51150000
H       -0.07880000       1.85980000       1.08680000
H        0.16750000      -0.57840000      -3.10000000
H        0.03590000      -3.82280000       0.01080000
H       -0.08800000      -2.47260000       2.13290000
