16
Properties=species:S:1:pos:R:3 gdb_41118=T pbc="F F F"
C        0.10630000       1.47970000      -0.16730000
O        1.49130000       1.37420000       0.25690000
C        1.31810000       0.01040000       0.72520000
C        1.73000000      -1.06450000      -0.23230000
C        0.60540000      -2.07900000      -0.47200000
C       -0.59780000      -2.16930000       0.41250000
C       -1.08360000      -0.93580000       0.60450000
C       -0.07840000      -0.01520000       0.00530000
N        0.56730000      -0.78320000      -1.15660000
H       -0.47790000       2.10260000       0.52360000
H        0.00920000       1.85730000      -1.18970000
H        1.50580000      -0.07460000       1.79840000
H        2.72860000      -1.26960000      -0.60700000
H        0.88780000      -2.92640000      -1.09000000
H       -0.98160000      -3.09760000       0.81400000
H       -1.91180000      -0.64130000       1.23480000
