21
Properties=species:S:1:pos:R:3 gdb_99645=T pbc="F F F"
C        0.06280000       1.49870000       0.02940000
N       -0.19570000       0.09900000      -0.29970000
C        0.78040000      -0.50760000      -1.19800000
C        2.16570000      -0.46820000      -0.65440000
N        3.22050000      -0.42480000      -0.18160000
C        0.39890000      -1.94100000      -1.52500000
C       -0.64240000      -2.22390000      -2.57710000
C        0.79420000      -2.61680000      -2.81990000
C        1.62860000      -1.94310000      -3.88880000
H        1.04890000       1.68390000       0.48390000
H       -0.00790000       2.10270000      -0.88220000
H       -0.70900000       1.84780000       0.72020000
H       -0.25570000      -0.45260000       0.55040000
H        0.78620000       0.08880000      -2.11780000
H        0.39060000      -2.58130000      -0.64630000
H       -1.38120000      -2.99260000      -2.38040000
H       -1.02750000      -1.37170000      -3.12880000
H        1.01130000      -3.67610000      -2.70970000
H        1.34080000      -0.89870000      -4.04280000
H        2.69440000      -1.96350000      -3.63780000
H        1.50080000      -2.45460000      -4.84860000
