17
Properties=species:S:1:pos:R:3 gdb_32126=T pbc="F F F"
C        0.01320000       1.44220000       0.05500000
N       -0.07140000      -0.00310000       0.00940000
C       -1.22910000      -0.69380000       0.01330000
N       -2.38450000      -0.00490000      -0.00340000
C       -3.46420000      -0.77990000      -0.01430000
N       -3.49970000      -2.10890000      -0.00400000
C       -2.28370000      -2.69030000       0.01850000
C       -2.24990000      -4.19090000       0.03440000
N       -1.12670000      -2.04130000       0.02750000
H        1.03980000       1.73850000      -0.16930000
H       -0.65630000       1.88510000      -0.68560000
H       -0.26270000       1.84160000       1.03860000
H        0.76310000      -0.56170000       0.07520000
H       -4.42430000      -0.26580000      -0.03120000
H       -2.75810000      -4.58310000      -0.85220000
H       -1.22220000      -4.55320000       0.06090000
H       -2.79890000      -4.56590000       0.90380000
