22
Properties=species:S:1:pos:R:3 gdb_10606=T pbc="F F F"
C       -1.13120000      -0.38480000       0.34980000
C        0.39400000      -0.49270000       0.47910000
C        1.10480000      -0.75120000      -0.83990000
C        1.12190000       0.39160000      -1.84660000
C        1.94620000       1.59970000      -1.38320000
O        2.37700000      -1.42150000      -0.72360000
C        1.29570000      -2.12690000      -1.34680000
C        0.81650000      -3.39530000      -0.68570000
H       -1.42740000       0.44800000      -0.29560000
H       -1.56030000      -1.29980000      -0.07180000
H       -1.59100000      -0.22020000       1.32890000
H        0.79160000       0.42940000       0.91950000
H        0.65610000      -1.29090000       1.17800000
H        1.54150000       0.01320000      -2.78470000
H        0.09270000       0.70030000      -2.06810000
H        1.50780000       2.08710000      -0.50680000
H        2.96290000       1.28910000      -1.12490000
H        2.01060000       2.35010000      -2.17670000
H        1.41440000      -2.22180000      -2.42950000
H        0.65570000      -3.27160000       0.38660000
H       -0.12040000      -3.73130000      -1.14370000
H        1.55720000      -4.19010000      -0.82500000
