20
Properties=species:S:1:pos:R:3 gdb_19705=T pbc="F F F"
C       -0.18400000       1.58110000      -0.00290000
C        0.01280000       0.07200000       0.02270000
C        1.23820000      -0.59500000      -0.66070000
C        2.15600000      -0.15680000       0.52880000
C        3.21770000      -1.23250000       0.76600000
C        2.35860000      -2.50920000       0.54390000
C        1.01160000      -1.85870000       0.23300000
C        0.80410000      -0.62060000       1.16630000
H        0.73200000       2.13390000       0.22240000
H       -0.53400000       1.90840000      -0.98850000
H       -0.94190000       1.88430000       0.72840000
H       -0.93590000      -0.42830000      -0.20970000
H        1.49860000      -0.58830000      -1.72260000
H        2.46560000       0.88450000       0.61690000
H        4.04940000      -1.15340000       0.05810000
H        3.64160000      -1.17750000       1.77410000
H        2.72120000      -3.12520000      -0.28540000
H        2.31330000      -3.14930000       1.43110000
H        0.15400000      -2.50090000       0.02020000
H        0.55900000      -0.64370000       2.23160000
