21
Properties=species:S:1:pos:R:3 gdb_94286=T pbc="F F F"
C       -0.34870000       1.43510000       0.03270000
C       -0.02330000      -0.05290000      -0.02340000
C        1.30810000      -0.42720000      -0.71620000
O        1.86370000      -0.95130000       0.50990000
C        0.63780000      -0.69830000       1.20490000
C        0.73880000      -0.35970000       2.65450000
C       -0.62900000      -0.02990000       3.26210000
C       -1.18470000      -1.40010000       2.74910000
C        0.19510000      -1.73850000       2.17690000
H        0.47970000       2.00100000       0.47130000
H       -0.52950000       1.82720000      -0.97440000
H       -1.24500000       1.63150000       0.62840000
H       -0.88130000      -0.61980000      -0.39630000
H        1.24350000      -1.19720000      -1.49430000
H        1.89180000       0.42080000      -1.09520000
H        1.70490000      -0.11780000       3.08260000
H       -0.59690000       0.00790000       4.35330000
H       -1.12250000       0.87830000       2.90340000
H       -1.48610000      -2.05850000       3.56640000
H       -2.00500000      -1.35830000       2.02370000
H        0.67990000      -2.70770000       2.18810000
