16
Properties=species:S:1:pos:R:3 gdb_90144=T pbc="F F F"
O        0.13220000       1.43380000       0.04400000
C        0.04340000       0.03250000       0.07950000
C        0.26910000      -0.57120000       1.50860000
C       -1.07660000      -1.29970000       1.36620000
C       -2.23910000      -0.36750000       1.19540000
C       -1.34900000      -0.62180000       0.01600000
O       -1.69080000      -1.67790000      -0.86710000
C       -1.62700000      -2.80790000      -0.08120000
N       -1.27320000      -2.71360000       1.14050000
H       -0.15540000       1.73380000      -0.82520000
H        0.69930000      -0.44650000      -0.65980000
H        1.12730000      -1.24150000       1.56060000
H        0.32780000       0.16650000       2.31280000
H       -3.21970000      -0.82610000       1.15370000
H       -2.20130000       0.61320000       1.65830000
H       -1.90620000      -3.72160000      -0.59320000
