10
Properties=species:S:1:pos:R:3 gdb_21477=T pbc="F F F"
N       -0.17840000       1.29330000       0.13800000
C       -0.02060000       0.06190000      -0.01760000
O       -1.15250000      -0.73490000       0.04780000
C       -0.99790000      -2.05400000       0.02420000
N        0.11040000      -2.73330000       0.12050000
O       -0.30810000      -4.02710000       0.04280000
N       -1.68710000      -4.05050000      -0.09030000
N       -2.10590000      -2.86500000      -0.10310000
H        0.71140000       1.78070000       0.04950000
H        0.89090000      -0.50470000      -0.21430000
