14
Properties=species:S:1:pos:R:3 gdb_13159=T pbc="F F F"
O       -0.01310000      -0.05240000       0.30190000
C       -0.06320000       1.15030000       0.13820000
C        1.15170000       1.99650000       0.17810000
N        2.11310000       2.63670000       0.21350000
N       -1.18110000       1.86040000      -0.09340000
C       -1.48540000       3.28160000      -0.31640000
C       -2.98510000       2.88110000      -0.44930000
C       -2.56720000       1.40110000      -0.20460000
H       -1.23890000       3.92250000       0.53530000
H       -1.02240000       3.69380000      -1.21780000
H       -3.63350000       3.30220000       0.31840000
H       -3.41770000       3.07400000      -1.43050000
H       -2.72790000       0.71120000      -1.03830000
H       -2.94400000       0.93980000       0.71310000
