13
Properties=species:S:1:pos:R:3 gdb_130698=T pbc="F F F"
O        0.00260000      -0.08300000       0.03020000
C       -0.00110000       1.11390000       0.03210000
N       -1.06310000       1.98900000       0.05980000
C       -0.71390000       3.40890000       0.05270000
C        0.77950000       3.30390000       0.01570000
N        1.84230000       4.06990000      -0.00910000
C        2.84950000       3.12980000      -0.03520000
N        2.46910000       1.85990000      -0.02760000
N        1.12440000       1.99970000       0.00530000
H       -2.00460000       1.63820000       0.08180000
H       -1.11380000       3.92960000      -0.82520000
H       -1.06990000       3.92760000       0.95050000
H        3.89410000       3.40190000      -0.06020000
