20
Properties=species:S:1:pos:R:3 gdb_120887=T pbc="F F F"
O        0.05000000       1.35310000      -0.46340000
C        0.03920000       0.02260000       0.00870000
C       -1.39360000      -0.47990000       0.18860000
N       -2.11320000      -0.32100000      -1.07210000
C       -1.94490000      -1.36610000      -2.13210000
C       -3.46740000      -1.52210000      -2.19800000
O       -4.20550000      -1.73200000      -3.34140000
C       -4.00560000      -1.92290000      -0.86240000
C       -3.56760000      -0.48390000      -1.08640000
H       -0.68300000       1.39040000      -1.09440000
H        0.58030000      -0.65200000      -0.67850000
H        0.56990000       0.00110000       0.96680000
H       -1.39070000      -1.51750000       0.56510000
H       -1.89950000       0.14460000       0.93360000
H       -1.49450000      -0.95580000      -3.04310000
H       -1.38110000      -2.25690000      -1.82640000
H       -3.99950000      -1.03180000      -3.97160000
H       -5.08340000      -2.05360000      -0.85510000
H       -3.46070000      -2.59460000      -0.20390000
H       -4.22790000       0.36350000      -0.93870000
