18
Properties=species:S:1:pos:R:3 gdb_45086=T pbc="F F F"
O        0.04330000      -0.05630000      -0.02440000
C        0.00830000       1.15400000      -0.02170000
C       -1.28530000       1.95890000       0.02510000
C       -1.35660000       3.02190000      -1.07860000
C       -1.12370000       4.48450000      -0.79520000
C       -0.07180000       3.68490000      -1.52510000
C        1.20410000       3.27920000      -0.83800000
N        1.21020000       3.27120000       0.62020000
C        1.26120000       1.97140000      -0.09480000
H       -2.11600000       1.25510000      -0.05180000
H       -1.33370000       2.43440000       1.01110000
H       -2.06510000       2.79390000      -1.86810000
H       -1.69430000       5.21680000      -1.35540000
H       -0.89470000       4.76090000       0.22790000
H        0.04670000       3.86390000      -2.58900000
H        2.12040000       3.58100000      -1.34010000
H        2.13290000       3.49920000       0.97880000
H        2.18290000       1.39800000      -0.09460000
