17
Properties=species:S:1:pos:R:3 gdb_47849=T pbc="F F F"
O        0.02130000       0.64720000       1.20720000
C       -0.07250000       1.25070000       0.18080000
C       -1.43630000       1.63060000      -0.43240000
N       -1.57030000       2.74350000      -1.33730000
C       -1.24390000       4.05410000      -0.80430000
C        0.18880000       4.18390000      -0.22560000
N        1.15150000       3.75370000      -1.21390000
C        1.42190000       2.53250000      -1.34960000
O        1.06960000       1.44340000      -0.58000000
H       -1.77050000       0.71870000      -0.94370000
H       -2.10250000       1.76250000       0.42620000
H       -1.09660000       2.57660000      -2.21580000
H       -1.37130000       4.78130000      -1.61110000
H       -1.96190000       4.30850000      -0.01540000
H        0.37800000       5.23330000       0.01960000
H        0.26400000       3.61580000       0.71410000
H        2.12180000       2.19750000      -2.11200000
