19
Properties=species:S:1:pos:R:3 gdb_38568=T pbc="F F F"
C       -0.05620000       1.50910000       0.14240000
C        1.48920000       1.54700000       0.00920000
C        2.26630000       1.39850000       1.33980000
C        2.54380000      -0.08700000       1.53160000
C        1.43130000      -1.10720000       1.40740000
O        0.10170000      -0.71650000       1.18760000
C       -0.01080000      -0.01990000      -0.05340000
C        1.44750000       0.10110000      -0.61620000
C        2.30640000      -0.83250000       0.22060000
H       -0.49910000       1.85900000       1.07850000
H       -0.55020000       2.00480000      -0.69870000
H        1.89190000       2.35250000      -0.60790000
H        3.22440000       1.92620000       1.28030000
H        1.71330000       1.83520000       2.17940000
H        3.37540000      -0.37150000       2.16960000
H        1.49650000      -2.02140000       1.98740000
H       -0.80150000      -0.48740000      -0.64850000
H        1.56120000       0.02180000      -1.69610000
H        2.98820000      -1.55030000      -0.21730000
