18
Properties=species:S:1:pos:R:3 gdb_120246=T pbc="F F F"
C        1.42860000       1.24720000      -2.43660000
O        1.23330000      -0.12800000      -2.20100000
C        1.36750000      -0.47830000      -0.84520000
C        1.05370000      -1.96290000      -0.72830000
N        1.51440000      -2.67480000       0.52180000
C        0.71140000      -2.14550000       1.62150000
C        0.09340000      -3.18930000       0.75200000
C       -0.37070000      -2.53640000      -0.52070000
O       -1.35980000      -2.60690000      -1.18830000
H        0.69500000       1.86200000      -1.89210000
H        2.43840000       1.57220000      -2.14030000
H        1.30290000       1.41330000      -3.50870000
H        2.39820000      -0.30790000      -0.48630000
H        0.69820000       0.13760000      -0.22380000
H        1.49810000      -2.46710000      -1.59350000
H        1.04860000      -2.47480000       2.59960000
H        0.33900000      -1.12560000       1.59330000
H       -0.12920000      -4.18990000       1.10340000
