17
Properties=species:S:1:pos:R:3 gdb_32775=T pbc="F F F"
N        0.27910000       1.46740000       0.20770000
C        0.06890000       0.09840000       0.06020000
C       -1.08690000      -0.60730000      -0.09800000
C       -2.53320000      -0.27700000      -0.13380000
C       -3.15290000      -0.39100000      -1.53080000
O       -4.52540000      -0.05360000      -1.41140000
O       -0.71550000      -1.93360000      -0.27460000
C        0.62410000      -1.92620000      -0.20840000
N        1.15590000      -0.76290000      -0.01090000
H        1.17700000       1.65430000       0.63430000
H       -0.45960000       1.94490000       0.70620000
H       -3.09910000      -0.92570000       0.54620000
H       -2.67390000       0.74940000       0.22270000
H       -2.62540000       0.28560000      -2.22050000
H       -3.01880000      -1.41710000      -1.90510000
H       -4.93290000      -0.13550000      -2.27830000
H        1.12720000      -2.87400000      -0.32020000
