18
Properties=species:S:1:pos:R:3 gdb_107365=T pbc="F F F"
C        0.05450000       1.30750000       0.32880000
O       -0.02610000      -0.00350000      -0.20500000
C       -1.30160000      -0.54840000      -0.14680000
C       -1.77280000      -1.16110000       1.15880000
C       -1.42500000      -2.03910000      -0.03410000
N       -2.49510000      -2.42240000      -0.90620000
C       -3.14590000      -1.36200000      -1.49820000
O       -4.16110000      -1.42990000      -2.15070000
C       -2.34600000      -0.09040000      -1.15440000
H        1.10130000       1.61140000       0.26430000
H       -0.55770000       2.01950000      -0.24200000
H       -0.26580000       1.33510000       1.37970000
H       -1.05370000      -1.14340000       1.97070000
H       -2.81460000      -1.07910000       1.45220000
H       -0.54590000      -2.67180000      -0.01230000
H       -2.96540000      -3.31230000      -0.84080000
H       -3.03310000       0.68030000      -0.79650000
H       -1.85820000       0.28600000      -2.05980000
