18
Properties=species:S:1:pos:R:3 gdb_35499=T pbc="F F F"
N       -0.90870000      -0.64680000      -1.28050000
C       -0.56510000       0.30860000      -0.72630000
C       -0.11530000       1.49880000      -0.02500000
C       -0.07190000       1.46800000       1.53650000
C        1.33210000       2.13890000       1.50950000
C        2.47530000       1.36660000       2.19380000
C        2.92510000       0.41020000       1.11140000
C        2.36090000       0.65780000      -0.07150000
C        1.42100000       1.83150000      -0.02320000
H       -0.69100000       2.35620000      -0.38520000
H       -0.87630000       2.01060000       2.03590000
H       -0.03940000       0.44830000       1.92540000
H        1.30070000       3.19750000       1.77100000
H        3.29650000       2.02470000       2.50840000
H        2.13470000       0.84690000       3.09880000
H        3.64530000      -0.37900000       1.29870000
H        2.54580000       0.10030000      -0.98270000
H        1.70080000       2.63090000      -0.71580000
