23
Properties=species:S:1:pos:R:3 gdb_89716=T pbc="F F F"
C        0.14660000       1.56960000       0.05800000
C        0.06020000       0.05150000       0.04130000
C        0.99090000      -0.73060000      -0.93810000
C        1.32010000      -1.69110000       0.21230000
C        1.16090000      -3.19530000       0.20520000
C        2.52000000      -2.55700000       0.41200000
C        3.58370000      -2.66590000      -0.65640000
O        3.02160000      -2.52400000       1.72590000
C        0.68660000      -0.73870000       1.23220000
H        1.18030000       1.90210000       0.20870000
H       -0.20770000       2.00050000      -0.88550000
H       -0.45950000       1.99430000       0.86640000
H       -0.97910000      -0.25960000      -0.10750000
H        0.52270000      -1.16000000      -1.82860000
H        1.85480000      -0.13370000      -1.25290000
H        0.69100000      -3.64830000       1.07290000
H        0.95830000      -3.69310000      -0.73930000
H        3.14730000      -2.62510000      -1.65850000
H        4.30840000      -1.85040000      -0.56140000
H        4.13000000      -3.61370000      -0.57050000
H        3.37330000      -3.39780000       1.93020000
H        1.43780000      -0.15610000       1.77550000
H       -0.00470000      -1.17290000       1.95900000
