16
Properties=species:S:1:pos:R:3 gdb_96966=T pbc="F F F"
C        0.05520000       1.44210000      -0.06280000
N       -0.05840000      -0.00890000      -0.08810000
C        0.56390000      -0.66070000      -0.94670000
O        1.40010000      -0.23280000      -1.99490000
C        1.49080000      -1.58400000      -2.48880000
C        2.16510000      -2.44010000      -1.48900000
C        0.66150000      -2.11430000      -1.31720000
C       -0.35080000      -3.10370000      -1.22540000
C       -1.20680000      -3.94430000      -1.14430000
H        0.65890000       1.85870000      -0.87720000
H       -0.94910000       1.87610000      -0.10660000
H        0.49410000       1.74710000       0.89330000
H        1.38970000      -1.74080000      -3.55360000
H        2.34390000      -3.47080000      -1.77690000
H        2.88940000      -2.00320000      -0.80920000
H       -1.97000000      -4.67870000      -1.06970000
