18
Properties=species:S:1:pos:R:3 gdb_77987=T pbc="F F F"
C       -0.77020000       1.23510000      -0.34000000
C       -0.40350000      -0.21770000      -0.54930000
C        0.53680000      -0.80580000      -1.58420000
C        1.82230000       0.00360000      -1.76850000
C        1.86590000       1.31270000      -2.52690000
O        1.98440000       0.12780000      -0.31620000
C        0.91400000      -0.79420000      -0.10220000
C        1.08850000      -1.84890000       0.84440000
N        1.20880000      -2.70610000       1.61270000
H       -1.36270000       1.61950000      -1.17630000
H       -1.36860000       1.33840000       0.57030000
H        0.12160000       1.85280000      -0.22610000
H       -1.21850000      -0.91630000      -0.36770000
H        0.25150000      -1.65270000      -2.19370000
H        2.61620000      -0.66130000      -2.13280000
H        2.82120000       1.81500000      -2.34440000
H        1.79210000       1.11290000      -3.60120000
H        1.05780000       1.98840000      -2.24530000
