18
Properties=species:S:1:pos:R:3 gdb_12821=T pbc="F F F"
C        0.01030000       1.52810000      -0.01010000
C       -0.03660000       0.02150000       0.06880000
C       -1.26110000      -0.65700000      -0.51960000
C       -1.23040000      -2.16520000      -0.26040000
O       -1.06080000      -2.43030000       1.12260000
C        0.22150000      -2.06640000       1.59860000
C        0.69840000      -0.70650000       1.11830000
O        1.20220000      -0.64670000      -0.22640000
H        0.94300000       1.90800000       0.41440000
H       -0.05120000       1.85930000      -1.05280000
H       -0.82990000       1.97350000       0.53290000
H       -2.15900000      -0.22560000      -0.06130000
H       -1.31400000      -0.45710000      -1.59740000
H       -2.17890000      -2.62690000      -0.54720000
H       -0.42420000      -2.63010000      -0.84640000
H        0.14910000      -2.06580000       2.69110000
H        0.97250000      -2.82040000       1.30840000
H        1.29390000      -0.13920000       1.83470000
