10
Properties=species:S:1:pos:R:3 gdb_1365=T pbc="F F F"
O       -0.15540000      -0.10280000       0.00160000
C       -0.05280000       1.09250000       0.00600000
C        1.25320000       1.88130000      -0.00120000
C        2.44360000       1.05230000      -0.01570000
C        3.43080000       0.37070000      -0.02760000
C       -1.25580000       1.95450000       0.01970000
N       -2.18720000       2.63970000       0.03030000
H        1.22050000       2.55570000      -0.86920000
H        1.23540000       2.54650000       0.87430000
H        4.30350000      -0.23500000      -0.03800000
