13
Properties=species:S:1:pos:R:3 gdb_46168=T pbc="F F F"
N       -0.03950000       1.17290000      -0.45880000
C        0.04210000      -0.00660000      -0.04370000
N        0.95930000      -0.86410000       0.53130000
C        0.12450000      -2.06380000       0.47280000
C       -1.05160000      -1.13300000      -0.02870000
C       -2.11170000      -0.92210000       0.95070000
N       -2.92620000      -0.76420000       1.75360000
C       -1.57490000      -1.47330000      -1.34610000
N       -1.95210000      -1.76520000      -2.39760000
H        0.83380000       1.69300000      -0.37560000
H        1.96590000      -0.80400000       0.50960000
H        0.42000000      -2.80350000      -0.27590000
H       -0.05700000      -2.54240000       1.43720000
