18
Properties=species:S:1:pos:R:3 gdb_73353=T pbc="F F F"
O       -0.09330000       1.40910000       0.02670000
C        0.02770000       0.00290000       0.02110000
C        0.69620000      -0.60530000      -1.23940000
C        0.16390000      -2.05400000      -1.22640000
N       -1.18710000      -1.99870000      -0.60790000
C       -1.26190000      -1.84780000       0.88690000
C       -0.00860000      -1.67310000       1.67990000
C        0.68890000      -0.62100000       1.24560000
C       -1.35770000      -0.67420000      -0.01920000
H        0.78970000       1.79060000       0.06340000
H        0.33440000      -0.06010000      -2.11830000
H        1.79000000      -0.55040000      -1.22480000
H        0.05870000      -2.46530000      -2.23350000
H        0.82460000      -2.71920000      -0.66200000
H       -2.12290000      -2.34480000       1.32200000
H        0.28620000      -2.34870000       2.47440000
H        1.67250000      -0.31770000       1.59100000
H       -2.24850000      -0.08990000      -0.22750000
