18
Properties=species:S:1:pos:R:3 gdb_46100=T pbc="F F F"
N       -0.25680000       1.08380000      -0.66870000
C       -0.12470000      -0.11840000      -0.30850000
C       -1.15700000      -0.94530000       0.43060000
C       -0.69650000      -2.39140000       0.18360000
C       -1.32790000      -2.97810000      -1.10100000
C       -0.87520000      -4.33270000      -1.39110000
C       -0.48180000      -5.44900000      -1.60210000
C        0.82150000      -2.18960000       0.04550000
O        0.98600000      -0.88470000      -0.53580000
H        0.59120000       1.41280000      -1.13410000
H       -1.11450000      -0.69700000       1.49690000
H       -2.16560000      -0.72130000       0.08000000
H       -0.92570000      -3.05290000       1.02200000
H       -2.41960000      -2.96940000      -0.99530000
H       -1.09830000      -2.32230000      -1.95130000
H       -0.14690000      -6.43630000      -1.80390000
H        1.32180000      -2.21170000       1.02150000
H        1.29940000      -2.91810000      -0.61290000
