17
Properties=species:S:1:pos:R:3 gdb_2183=T pbc="F F F"
C       -0.25530000       1.53680000      -0.09730000
C        0.02200000       0.03790000      -0.03230000
C        1.23110000      -0.40990000      -0.91750000
C        2.05430000      -0.52200000       0.37570000
O        3.22670000      -0.52980000       0.62000000
C        0.79270000      -0.45520000       1.25030000
C        0.83220000       0.34270000       2.54600000
H        0.65970000       2.12330000       0.04510000
H       -0.66900000       1.80840000      -1.07390000
H       -0.97250000       1.84790000       0.66900000
H       -0.89870000      -0.51830000      -0.22260000
H        1.09130000      -1.38570000      -1.39380000
H        1.60160000       0.29540000      -1.66630000
H        0.49020000      -1.49000000       1.46230000
H        1.12720000       1.38150000       2.37350000
H       -0.14270000       0.34430000       3.04400000
H        1.56230000      -0.09650000       3.23230000
