13
Properties=species:S:1:pos:R:3 gdb_131005=T pbc="F F F"
O       -0.07410000      -0.03260000      -0.00030000
C       -0.00870000       1.15840000       0.00910000
N        1.19210000       1.89790000       0.00200000
C        1.28430000       3.26070000       0.01250000
C        2.62420000       3.56830000       0.00020000
C        3.24320000       4.89310000       0.00440000
O        4.43830000       5.07980000      -0.00720000
C        3.27560000       2.29280000      -0.01770000
N        2.42180000       1.29520000      -0.01670000
H       -0.87760000       1.84130000       0.02440000
H        0.40520000       3.88670000       0.02750000
H        2.52590000       5.74280000       0.01950000
H        4.33900000       2.10500000      -0.03110000
