19
Properties=species:S:1:pos:R:3 gdb_90303=T pbc="F F F"
C       -0.09730000       1.47730000      -0.08850000
N       -0.02780000       0.04140000       0.09420000
C       -1.23670000      -0.63610000       0.66690000
C       -0.26300000      -1.49100000       1.44500000
C        0.18820000      -2.73360000       1.59720000
C        1.68930000      -2.69980000       1.50440000
N        2.08250000      -2.37780000       0.10390000
C        2.08450000      -1.30080000       1.10950000
C        0.81690000      -0.46740000       1.22050000
H        0.87690000       1.85030000      -0.42100000
H       -0.83030000       1.71680000      -0.86590000
H       -0.38130000       2.02490000       0.83090000
H       -1.84180000       0.03800000       1.29600000
H       -1.88340000      -1.12780000      -0.06590000
H       -0.38420000      -3.65270000       1.56140000
H        2.33590000      -3.34230000       2.09340000
H        3.04880000      -2.66720000      -0.03970000
H        3.03720000      -0.88790000       1.42390000
H        0.92170000       0.28590000       2.02010000
