25
Properties=species:S:1:pos:R:3 gdb_95774=T pbc="F F F"
C        0.03260000       1.62110000      -0.02850000
C       -0.01590000       0.08680000      -0.02770000
C        0.71890000      -0.45900000      -1.26500000
C        0.64300000      -1.97220000      -1.50790000
C        1.32210000      -2.84330000      -0.43370000
C        0.54590000      -2.96510000       0.86470000
C        0.15540000      -4.36230000       1.27020000
C        0.21870000      -1.90410000       1.60720000
C        0.55570000      -0.46480000       1.29990000
H        1.06520000       1.98170000       0.05620000
H       -0.38560000       2.03230000      -0.95340000
H       -0.53340000       2.03830000       0.81100000
H       -1.06850000      -0.22260000      -0.08980000
H        0.32420000       0.05100000      -2.15340000
H        1.77720000      -0.16450000      -1.19670000
H       -0.40560000      -2.28010000      -1.60990000
H        1.12030000      -2.18120000      -2.47360000
H        1.48420000      -3.84530000      -0.84590000
H        2.32490000      -2.43740000      -0.23290000
H        1.04120000      -5.00030000       1.39120000
H       -0.40280000      -4.37440000       2.21030000
H       -0.46360000      -4.84070000       0.49930000
H       -0.34490000      -2.07680000       2.52220000
H        1.64800000      -0.32330000       1.28650000
H        0.18850000       0.16080000       2.12080000
