16
Properties=species:S:1:pos:R:3 gdb_19268=T pbc="F F F"
C        0.16590000       1.18520000      -0.61970000
N       -0.14440000       0.29930000       0.49670000
C       -1.39650000      -0.38660000       0.38060000
C       -1.56660000      -1.61930000      -0.55620000
N       -0.59570000      -2.59770000      -0.05730000
C       -1.95690000      -2.50990000       0.58870000
C       -1.83540000      -1.34640000       1.54740000
O       -2.11210000      -1.17220000       2.69550000
H        1.14060000       1.65170000      -0.45130000
H        0.19050000       0.68970000      -1.60570000
H       -0.58200000       1.98490000      -0.66730000
H        0.59310000      -0.38700000       0.62000000
H       -2.20590000       0.33850000       0.22520000
H       -1.94920000      -1.65350000      -1.56820000
H       -0.62450000      -3.42000000      -0.65990000
H       -2.60630000      -3.37480000       0.62330000
