14
Properties=species:S:1:pos:R:3 gdb_2070=T pbc="F F F"
N       -0.07280000       1.28390000       0.32830000
C       -0.00950000       0.08630000      -0.06470000
O        1.17550000      -0.56020000      -0.25390000
C        1.24850000      -1.78700000      -0.99130000
C        0.03380000      -2.65840000      -0.72800000
C       -1.19090000      -1.80210000      -0.99560000
O       -1.15930000      -0.60570000      -0.21470000
H        0.86990000       1.65000000       0.44480000
H        1.32820000      -1.55340000      -2.06250000
H        2.18140000      -2.26000000      -0.67640000
H        0.04280000      -3.53450000      -1.38410000
H        0.03110000      -3.00530000       0.31050000
H       -1.25210000      -1.53810000      -2.06130000
H       -2.12090000      -2.30150000      -0.71620000
