11
Properties=species:S:1:pos:R:3 gdb_129326=T pbc="F F F"
N       -0.11320000       1.39840000       0.11230000
C       -0.07470000       0.19660000      -0.25170000
O        0.96250000      -0.34860000      -0.97180000
N        1.38170000      -1.78440000      -0.61910000
N        0.60180000      -2.64520000      -0.94960000
C       -0.68240000      -2.38490000      -1.53870000
N       -1.54320000      -1.59040000      -1.07750000
C       -1.25090000      -0.73600000       0.01260000
O       -1.90570000      -0.71830000       1.01460000
H        0.75790000       1.88400000      -0.11380000
H       -0.88810000      -3.03570000      -2.38540000
