17
Properties=species:S:1:pos:R:3 gdb_41688=T pbc="F F F"
C        0.00640000       1.49410000       0.13950000
O        1.34570000       1.96130000      -0.00110000
C        2.12360000       1.00640000      -0.71580000
C        1.42270000      -0.31740000      -0.52820000
C        1.73670000      -1.63920000      -1.20730000
N        1.34230000      -2.66810000      -0.22440000
C        0.99790000      -2.05710000       0.83730000
N        1.08830000      -0.63330000       0.89370000
C        0.07130000      -0.00860000      -0.00820000
H       -0.35960000       1.82630000       1.11590000
H       -0.64980000       1.90670000      -0.64410000
H        2.17770000       1.25040000      -1.78970000
H        3.13730000       1.02560000      -0.30210000
H        1.19940000      -1.79570000      -2.14850000
H        2.80770000      -1.73760000      -1.42740000
H        0.66460000      -2.57510000       1.73210000
H       -0.80910000      -0.58560000      -0.27130000
