18
Properties=species:S:1:pos:R:3 gdb_78998=T pbc="F F F"
C        0.16950000       1.49850000       0.33970000
C        0.01910000       0.01550000       0.08870000
N        0.83010000      -0.62380000      -1.06970000
C        2.28140000      -0.58180000      -1.09340000
C        2.96470000      -1.00060000       0.39100000
C        1.97960000      -0.63680000       1.38060000
C        0.74560000      -1.04630000       0.94530000
C        0.93820000      -1.92230000      -0.30960000
C        2.44160000      -1.99240000      -0.60410000
H        1.21860000       1.78890000       0.43780000
H       -0.27450000       2.06660000      -0.48390000
H       -0.35050000       1.78160000       1.26050000
H       -1.02220000      -0.23080000      -0.14490000
H        2.86110000       0.05760000      -1.74220000
H        4.03100000      -0.81390000       0.45520000
H        2.12100000       0.24100000       2.00260000
H        0.24230000      -2.71920000      -0.56850000
H        3.00110000      -2.82340000      -1.01230000
