16
Properties=species:S:1:pos:R:3 gdb_73775=T pbc="F F F"
C        0.01820000       1.54730000       0.02020000
C       -0.02460000       0.05380000       0.01640000
C       -1.08730000      -0.78920000       0.04370000
N       -2.42130000      -0.56830000       0.11530000
C       -0.60620000      -2.20550000       0.02010000
N       -1.40870000      -3.19360000      -0.00830000
N        0.77020000      -2.12190000       0.02300000
C        1.19560000      -0.77170000      -0.01010000
O        2.35540000      -0.42860000      -0.05240000
H        1.05830000       1.87740000      -0.03980000
H       -0.52190000       1.97970000      -0.83170000
H       -0.41950000       1.97100000       0.93250000
H       -2.79330000       0.33640000      -0.11740000
H       -3.00930000      -1.37280000      -0.04610000
H       -0.92460000      -4.09140000      -0.02930000
H        1.40930000      -2.89480000      -0.05500000
