16
Properties=species:S:1:pos:R:3 gdb_53852=T pbc="F F F"
C        0.02550000       1.37300000      -0.30250000
C       -0.02860000      -0.04310000       0.19960000
O        0.90440000      -0.63240000       0.69650000
C       -1.39690000      -0.74950000       0.04430000
O       -2.35770000      -0.18660000      -0.45200000
N       -1.37510000      -2.01520000       0.51630000
C       -2.52400000      -2.90160000       0.42800000
C       -2.18750000      -4.19130000      -0.16720000
C       -1.89810000      -5.25880000      -0.63510000
H        1.02370000       1.78420000      -0.15270000
H       -0.24950000       1.39960000      -1.36170000
H       -0.72470000       1.97780000       0.21660000
H       -0.49090000      -2.35120000       0.87150000
H       -2.96320000      -3.05840000       1.42270000
H       -3.27310000      -2.37360000      -0.17200000
H       -1.65140000      -6.20030000      -1.06010000
