12
Properties=species:S:1:pos:R:3 gdb_4412=T pbc="F F F"
N       -0.01060000       1.36290000      -0.09390000
C       -0.02990000       0.01010000      -0.03520000
N       -1.18670000      -0.62020000      -0.01720000
C       -1.08230000      -1.97320000       0.00110000
N       -0.01430000      -2.72560000       0.01180000
C        1.20960000      -2.09370000      -0.00540000
O        2.29660000      -2.61910000      -0.00350000
N        1.14230000      -0.66330000      -0.02880000
H        0.82030000       1.88050000       0.13650000
H       -0.89900000       1.81750000       0.04200000
H       -2.03900000      -2.49430000       0.01230000
H        2.03650000      -0.19270000      -0.06560000
