19
Properties=species:S:1:pos:R:3 gdb_92753=T pbc="F F F"
C        0.16490000       1.51950000       0.06350000
C       -0.06560000       0.00760000      -0.00440000
C        0.64120000      -0.65390000      -1.22670000
C        1.89620000      -1.25010000      -0.61030000
C        1.76020000      -1.21710000       0.73050000
N        0.55710000      -0.69040000       1.14490000
C        3.06170000      -1.82950000      -1.28210000
N        3.01550000      -1.81460000      -2.66470000
O        4.03850000      -2.26190000      -0.68600000
H        1.23590000       1.74580000       0.04200000
H       -0.30990000       2.01870000      -0.78740000
H       -0.26070000       1.94420000       0.97950000
H       -1.14080000      -0.19600000      -0.01190000
H       -0.00080000      -1.42760000      -1.67140000
H        0.84420000       0.08470000      -2.01090000
H        2.47510000      -1.59220000       1.45080000
H        0.52360000      -0.22550000       2.04130000
H        2.12820000      -1.75560000      -3.13670000
H        3.72960000      -2.36110000      -3.12080000
