15
Properties=species:S:1:pos:R:3 gdb_10678=T pbc="F F F"
N        0.10830000       1.22350000       0.42160000
C        0.03710000       0.00390000      -0.15530000
O        0.95310000      -0.51050000      -0.77720000
C       -1.28280000      -0.72560000       0.01020000
C       -1.66190000      -1.64410000      -1.16760000
C       -1.16490000      -2.26100000       0.07500000
C       -2.43020000      -0.16130000       0.74990000
O       -2.48050000       0.91530000       1.30580000
H        0.96960000       1.73660000       0.33260000
H       -0.68540000       1.59680000       0.92510000
H       -2.71570000      -1.71780000      -1.41290000
H       -0.97890000      -1.57430000      -2.00500000
H       -0.14130000      -2.61380000       0.08950000
H       -1.86060000      -2.77890000       0.72600000
H       -3.31570000      -0.83510000       0.76860000
