19
Properties=species:S:1:pos:R:3 gdb_105318=T pbc="F F F"
C        0.09320000       1.45430000      -0.09340000
N       -0.01210000       0.02550000       0.18430000
C       -1.32780000      -0.54960000       0.01170000
C       -2.07850000      -0.56330000      -1.40250000
C       -2.15620000      -2.08880000      -1.31320000
C       -0.77270000      -2.65830000      -1.23820000
C       -1.39110000      -2.08740000       0.01130000
C       -2.23060000       0.00140000       1.03360000
N       -2.95430000       0.43640000       1.82300000
H        1.13050000       1.76820000       0.04780000
H       -0.22080000       1.74260000      -1.11060000
H       -0.52400000       2.01050000       0.61900000
H        0.65420000      -0.50240000      -0.36600000
H       -3.04370000      -0.05750000      -1.37000000
H       -1.49010000      -0.16450000      -2.23500000
H       -3.01620000      -2.68550000      -1.58630000
H       -0.70200000      -3.74100000      -1.23850000
H        0.05210000      -2.16630000      -1.74920000
H       -1.53940000      -2.68350000       0.90220000
