21
Properties=species:S:1:pos:R:3 gdb_90783=T pbc="F F F"
C       -0.10580000       1.52350000       0.04810000
C        0.00610000      -0.00320000       0.01830000
C        0.80570000      -0.53020000      -1.21530000
C        2.18190000      -0.89070000      -0.65490000
C        2.32100000      -0.40980000       0.78270000
C        0.83850000      -0.53920000       1.18480000
O        0.90090000      -1.99860000       1.05900000
C        2.21730000      -1.87860000       0.49900000
C        3.14290000      -3.03880000       0.65300000
H        0.88540000       1.99040000       0.01000000
H       -0.67700000       1.88960000      -0.81090000
H       -0.60700000       1.87320000       0.95730000
H       -0.99400000      -0.44810000       0.05290000
H        0.31670000      -1.39960000      -1.66420000
H        0.88720000       0.23750000      -1.99170000
H        3.05750000      -0.86510000      -1.29500000
H        3.10070000       0.20820000       1.20590000
H        0.52450000      -0.23790000       2.18640000
H        2.75790000      -3.91290000       0.11570000
H        4.12930000      -2.79790000       0.24600000
H        3.25640000      -3.31020000       1.70730000
