24
Properties=species:S:1:pos:R:3 gdb_5891=T pbc="F F F"
C       -0.10670000       1.48750000      -0.14290000
C        0.00870000      -0.03110000       0.00790000
C        0.75870000      -0.43750000       1.27190000
O        0.80570000      -1.84920000       1.30960000
C        1.46540000      -2.48830000       2.41260000
C        0.77300000      -2.15300000       3.74410000
C        1.31040000      -3.98080000       2.10210000
C        2.95580000      -2.11300000       2.46200000
H        0.88040000       1.96060000      -0.19360000
H       -0.64780000       1.75280000      -1.05580000
H       -0.64350000       1.93360000       0.70180000
H       -0.98700000      -0.48860000       0.03290000
H        0.52680000      -0.46190000      -0.85660000
H        1.77010000      -0.00160000       1.25770000
H        0.24300000      -0.02850000       2.15510000
H       -0.29920000      -2.36070000       3.67630000
H        1.19010000      -2.76150000       4.55260000
H        0.90440000      -1.10380000       4.02450000
H        1.77790000      -4.21630000       1.14200000
H        1.77750000      -4.59300000       2.87900000
H        0.25100000      -4.24410000       2.03810000
H        3.10830000      -1.06370000       2.73130000
H        3.47560000      -2.72060000       3.20940000
H        3.42380000      -2.29130000       1.48910000
