21
Properties=species:S:1:pos:R:3 gdb_120703=T pbc="F F F"
C        0.33260000       1.37510000      -0.84870000
C        0.08860000      -0.04460000      -0.33040000
C       -1.36390000      -0.48730000      -0.51090000
N       -1.51740000      -1.87200000      -0.05210000
C       -1.85090000      -2.11000000       1.33580000
C       -2.84590000      -2.41780000       0.26200000
C       -4.08710000      -1.56770000       0.19690000
N       -5.13630000      -2.16540000      -0.44140000
O       -4.17000000      -0.44910000       0.67530000
H        1.37420000       1.67670000      -0.70180000
H        0.11300000       1.45090000      -1.91960000
H       -0.30170000       2.10220000      -0.33000000
H        0.74470000      -0.75660000      -0.84420000
H        0.34780000      -0.09860000       0.73470000
H       -2.04250000       0.20420000       0.00380000
H       -1.62500000      -0.46800000      -1.57680000
H       -1.32570000      -2.92440000       1.82830000
H       -2.09560000      -1.25180000       1.95910000
H       -2.97200000      -3.45030000      -0.06040000
H       -5.04090000      -3.03660000      -0.93220000
H       -5.98120000      -1.63150000      -0.56290000
