19
Properties=species:S:1:pos:R:3 gdb_91642=T pbc="F F F"
O       -0.01400000       1.44040000      -0.06930000
C        0.01370000       0.02760000       0.02770000
C        0.59890000      -0.54530000       1.36390000
C       -0.61440000      -1.33910000       1.90220000
O       -1.21880000      -1.81060000       0.68260000
C       -1.43270000      -0.52940000       0.07810000
C       -2.20630000       0.24580000       1.14400000
C       -3.07840000      -0.57700000       2.05630000
C       -1.63920000      -0.33310000       2.42830000
H        0.89130000       1.75470000      -0.14640000
H        0.53910000      -0.40490000      -0.83380000
H        1.45300000      -1.20260000       1.18270000
H        0.90920000       0.26350000       2.03150000
H       -0.38520000      -2.19270000       2.54160000
H       -1.91610000      -0.65780000      -0.89080000
H       -2.37000000       1.30580000       1.01240000
H       -3.82040000      -0.03040000       2.62780000
H       -3.37850000      -1.57080000       1.74430000
H       -1.38030000       0.29070000       3.27530000
