17
Properties=species:S:1:pos:R:3 gdb_72564=T pbc="F F F"
C       -0.02740000       1.50850000      -0.00910000
C        0.03400000      -0.00250000       0.02860000
C        0.76610000      -0.69720000      -1.15480000
O        0.93390000      -2.05900000      -0.70890000
C        0.36270000      -2.09570000       0.57410000
C        0.72490000      -0.74880000       1.19760000
O       -1.07870000      -2.00590000       0.44510000
C       -1.32930000      -0.70750000       0.08020000
O       -2.42070000      -0.28250000      -0.15460000
H        0.97520000       1.94140000      -0.07990000
H       -0.61370000       1.84560000      -0.86880000
H       -0.51000000       1.90170000       0.88970000
H        0.19240000      -0.68260000      -2.08650000
H        1.74850000      -0.24210000      -1.32950000
H        0.60780000      -3.03260000       1.06690000
H        1.80290000      -0.58310000       1.25560000
H        0.25650000      -0.57680000       2.16830000
