22
Properties=species:S:1:pos:R:3 gdb_10062=T pbc="F F F"
C        0.80710000      -0.19600000      -1.31620000
C       -0.01510000      -0.06640000      -0.03310000
C        0.69300000      -0.62170000       1.22530000
C       -0.13030000      -0.32740000       2.50160000
C        0.57480000      -0.72260000       3.80000000
C        0.97680000      -2.05210000       1.09090000
C        1.18390000      -3.23410000       0.97860000
C        1.44670000      -4.66080000       0.84370000
H        1.04070000      -1.24350000      -1.52750000
H        0.26290000       0.21120000      -2.17390000
H        1.75540000       0.34750000      -1.23490000
H       -0.24920000       0.98950000       0.15130000
H       -0.97470000      -0.58440000      -0.15130000
H        1.65360000      -0.09210000       1.32350000
H       -0.35660000       0.74610000       2.51550000
H       -1.09170000      -0.84970000       2.42550000
H        0.79820000      -1.79330000       3.81400000
H        1.52140000      -0.18270000       3.91630000
H       -0.04800000      -0.49340000       4.67030000
H        1.98150000      -5.05240000       1.71630000
H        0.51650000      -5.23140000       0.74390000
H        2.05920000      -4.87200000      -0.04000000
