18
Properties=species:S:1:pos:R:3 gdb_37220=T pbc="F F F"
C        0.21750000       1.52720000      -0.22560000
C        1.35310000       0.61760000       0.08200000
N       -0.09760000       0.12160000       0.07550000
C        0.26530000      -0.70220000      -1.15840000
C       -0.46450000      -0.61020000      -2.51340000
O        0.41050000      -0.20590000      -3.56260000
C        1.74660000      -0.71330000      -3.47430000
C        2.44000000      -0.15880000      -2.24190000
C        1.65020000      -0.12540000      -1.18030000
H       -0.11320000       2.20360000       0.55730000
H        0.10410000       1.90600000      -1.23870000
H        1.93800000       0.68120000       0.99220000
H        0.27690000      -1.73980000      -0.81040000
H       -0.91440000      -1.58370000      -2.76110000
H       -1.26730000       0.13320000      -2.48100000
H        1.73720000      -1.81630000      -3.48920000
H        2.24520000      -0.37640000      -4.38660000
H        3.42360000       0.29340000      -2.30910000
