17
Properties=species:S:1:pos:R:3 gdb_37188=T pbc="F F F"
C        0.08480000       1.53580000       0.16070000
O        1.51420000       1.42940000      -0.13840000
C        1.27540000       0.20750000      -0.90420000
C        1.55890000      -1.22250000      -0.40270000
C        0.79230000      -0.83300000       0.89400000
C       -0.04830000       0.04320000      -0.13370000
C       -0.79390000      -1.05160000      -0.88910000
O       -0.28440000      -1.28140000      -2.21590000
C        0.35870000      -1.94900000      -1.12000000
H       -0.09480000       1.87580000       1.18520000
H       -0.41710000       2.20040000      -0.55410000
H        1.32260000       0.40970000      -1.97240000
H        2.52210000      -1.73460000      -0.41640000
H        0.25460000      -1.63040000       1.41280000
H        1.37480000      -0.23430000       1.59310000
H       -1.80750000      -1.38390000      -0.69450000
H        0.30170000      -3.03270000      -1.12320000
