18
Properties=species:S:1:pos:R:3 gdb_46402=T pbc="F F F"
N       -0.11700000       1.18100000      -0.33510000
C       -0.03960000      -0.03620000      -0.04260000
O        1.02590000      -0.78830000       0.40360000
C        0.18780000      -1.98150000       0.52000000
C       -1.02900000      -1.18870000      -0.00960000
C       -2.24500000      -1.03060000       0.90030000
C       -3.26010000      -0.01380000       0.33620000
C       -4.41850000       0.15620000       1.20360000
C       -5.36280000       0.27560000       1.93760000
H        0.77750000       1.65740000      -0.20810000
H        0.56470000      -2.78820000      -0.11260000
H        0.12360000      -2.30980000       1.56090000
H       -1.33610000      -1.49530000      -1.01440000
H       -2.73380000      -2.00290000       1.02910000
H       -1.92330000      -0.70290000       1.89510000
H       -2.75480000       0.94720000       0.18480000
H       -3.59160000      -0.34390000      -0.65730000
H       -6.20230000       0.39470000       2.57640000
