19
Properties=species:S:1:pos:R:3 gdb_85408=T pbc="F F F"
C       -0.01000000       1.56080000      -0.02360000
C       -0.07340000       0.02200000       0.02390000
N        0.47740000      -0.57830000      -1.19330000
C        1.68770000      -1.20090000      -1.33850000
O        2.15360000      -1.53210000      -2.41330000
N        2.34690000      -1.45470000      -0.14210000
C        1.79120000      -1.21360000       1.11530000
C        2.57640000      -1.75600000       2.27220000
C        0.64340000      -0.53740000       1.22290000
H        1.02920000       1.89830000      -0.07570000
H       -0.54710000       1.94740000      -0.89730000
H       -0.47050000       1.99020000       0.87240000
H       -1.13540000      -0.26250000       0.07870000
H        0.04910000      -0.34320000      -2.07510000
H        3.17500000      -2.01880000      -0.23790000
H        2.68670000      -2.84480000       2.19780000
H        3.58600000      -1.32780000       2.29490000
H        2.08460000      -1.52420000       3.21810000
H        0.21900000      -0.34140000       2.19910000
