14
Properties=species:S:1:pos:R:3 gdb_20653=T pbc="F F F"
C       -0.02870000       1.51750000       0.01290000
C       -0.00690000       0.02320000      -0.03970000
C       -0.03790000      -0.71840000      -1.17920000
C       -0.01300000      -2.14330000      -1.12020000
N        0.03950000      -2.80980000      -0.00180000
N        0.06950000      -2.06800000       1.11330000
C        0.05230000      -0.67760000       1.24440000
O        0.08530000      -0.15320000       2.34610000
H        0.85960000       1.89320000       0.53200000
H       -0.07340000       1.95460000      -0.98700000
H       -0.88680000       1.86550000       0.59800000
H       -0.08200000      -0.23400000      -2.15060000
H       -0.03730000      -2.74310000      -2.02280000
H        0.11020000      -2.59270000       1.97750000
