18
Properties=species:S:1:pos:R:3 gdb_35613=T pbc="F F F"
N       -0.44740000      -0.70980000      -1.02820000
C       -0.27490000       0.30800000      -0.50720000
C       -0.04290000       1.59370000       0.13950000
C       -0.36710000       1.59980000       1.66790000
C        0.67850000       2.53730000       2.22370000
C        1.64040000       2.79730000       1.33950000
C        1.41440000       2.11410000       0.03970000
C        2.52780000       1.34560000      -0.64400000
C        1.99000000       2.60730000      -1.26430000
H       -0.69440000       2.32760000      -0.34940000
H       -1.39500000       1.92550000       1.85460000
H       -0.27060000       0.59630000       2.10120000
H        0.64570000       2.90070000       3.24370000
H        2.51830000       3.40830000       1.51790000
H        3.50880000       1.37240000      -0.18220000
H        2.27360000       0.39920000      -1.10900000
H        1.37340000       2.50930000      -2.15250000
H        2.60280000       3.50250000      -1.24340000
