14
Properties=species:S:1:pos:R:3 gdb_42747=T pbc="F F F"
O       -0.03560000       0.00930000      -0.14090000
C       -0.05160000       1.18320000      -0.05040000
C       -1.08350000       2.37120000       0.09590000
C       -0.01900000       2.98630000       1.05390000
C        1.02350000       2.39780000       0.04530000
C        0.60310000       3.07330000      -1.25260000
C       -0.74070000       3.05680000      -1.21510000
C        2.41400000       2.22200000       0.36250000
N        3.52740000       2.06160000       0.63030000
H       -2.12060000       2.21700000       0.37920000
H       -0.02130000       4.07580000       1.12430000
H        0.02140000       2.51080000       2.03760000
H        1.27800000       3.36400000      -2.04340000
H       -1.44490000       3.33540000      -1.98490000
