13
Properties=species:S:1:pos:R:3 gdb_4019=T pbc="F F F"
N        0.02130000       1.34150000      -0.15350000
C       -0.06470000      -0.00000000       0.00980000
N        1.10420000      -0.66470000       0.15600000
H        0.98650000      -1.67290000       0.12260000
H        1.93610000      -0.27630000      -0.26020000
C       -1.28570000      -0.70890000       0.01970000
C       -2.57130000      -0.03110000       0.12580000
O       -3.67140000      -0.52210000       0.01760000
N       -1.08120000      -2.09090000      -0.03370000
O       -2.05360000      -2.83160000      -0.00220000
H        0.84670000       1.81910000       0.17050000
H       -0.82320000       1.88580000      -0.19190000
H       -2.48590000       1.06420000       0.36190000
