19
Properties=species:S:1:pos:R:3 gdb_96215=T pbc="F F F"
C        0.03150000       1.61650000      -0.14070000
C        0.04390000       0.08330000      -0.01390000
C        0.59200000      -0.53920000      -1.30810000
O        0.85200000      -1.92710000      -1.18290000
C        1.88620000      -2.19130000      -0.26350000
C        1.73260000      -1.43150000       1.01750000
C        0.86650000      -0.41630000       1.15790000
C        0.69410000       0.13970000       2.51430000
O       -0.13940000       0.95280000       2.84530000
H        1.04980000       2.00880000      -0.24040000
H       -0.53070000       1.91510000      -1.03210000
H       -0.42870000       2.07500000       0.73380000
H       -0.99070000      -0.25600000       0.12890000
H       -0.13160000      -0.43530000      -2.12110000
H        1.51220000      -0.00750000      -1.60590000
H        1.86210000      -3.26970000      -0.06470000
H        2.87820000      -1.97530000      -0.70540000
H        2.33770000      -1.75540000       1.86280000
H        1.40540000      -0.28310000       3.26100000
