16
Properties=species:S:1:pos:R:3 gdb_47773=T pbc="F F F"
O        0.00820000      -0.03070000       0.06480000
C       -0.02860000       1.16850000       0.00570000
C       -1.32110000       1.97860000      -0.04960000
O       -1.28520000       2.96630000      -1.06440000
C       -0.20660000       3.87700000      -0.91620000
C        1.13210000       3.15880000      -1.07560000
C        1.26670000       2.02590000      -0.02400000
C        1.49240000       2.57320000       1.31490000
N        1.64960000       3.01840000       2.37040000
H       -2.15160000       1.30600000      -0.26950000
H       -1.48570000       2.43500000       0.94290000
H       -0.33550000       4.62950000      -1.69800000
H       -0.26000000       4.38430000       0.06060000
H        1.17760000       2.70670000      -2.07150000
H        1.96690000       3.86000000      -0.98300000
H        2.09310000       1.35110000      -0.26470000
