17
Properties=species:S:1:pos:R:3 gdb_53112=T pbc="F F F"
C        0.05510000       1.56230000      -0.17650000
C        0.09350000       0.10890000      -0.11610000
C        0.12120000      -1.09430000      -0.07460000
C        0.13750000      -2.53810000      -0.02330000
C        0.36070000      -3.27020000       1.33620000
C        0.42560000      -2.45020000       2.60140000
O       -0.94190000      -3.93950000       1.17910000
C       -1.22220000      -3.27960000       0.01650000
O       -2.20180000      -3.34650000      -0.64870000
H        0.64090000       1.94030000      -1.02120000
H       -0.97190000       1.92480000      -0.29320000
H        0.46310000       2.00730000       0.73750000
H        0.76300000      -2.95540000      -0.81990000
H        1.15050000      -4.02480000       1.29660000
H       -0.36360000      -1.69470000       2.61850000
H        0.31610000      -3.09790000       3.47570000
H        1.39160000      -1.94000000       2.66630000
