21
Properties=species:S:1:pos:R:3 gdb_107307=T pbc="F F F"
C        0.00530000       1.48660000      -0.40330000
C        0.01790000       0.04870000       0.13300000
C       -1.36680000      -0.53290000       0.26950000
C       -2.35410000       0.00310000       1.31110000
C       -3.27100000      -1.17710000       1.59600000
C       -4.44270000      -1.05040000       2.51540000
C       -2.89260000      -2.25860000       0.90310000
C       -1.72870000      -1.94230000       0.02910000
O       -2.01050000      -0.91260000      -0.95620000
H        1.02340000       1.86730000      -0.52730000
H       -0.49490000       1.52690000      -1.37550000
H       -0.52260000       2.16430000       0.27600000
H        0.59600000      -0.59030000      -0.54330000
H        0.51760000       0.01640000       1.10980000
H       -1.83650000       0.33670000       2.22140000
H       -2.91240000       0.86720000       0.93070000
H       -5.16150000      -0.31070000       2.14010000
H       -4.96770000      -2.00230000       2.63180000
H       -4.13250000      -0.70480000       3.51000000
H       -3.38140000      -3.22540000       0.92820000
H       -1.01780000      -2.69740000      -0.29460000
