20
Properties=species:S:1:pos:R:3 gdb_63439=T pbc="F F F"
C       -0.24460000       1.54680000      -0.12420000
C       -0.07110000       0.03330000      -0.05970000
O       -1.28710000      -0.63590000      -0.33670000
C        1.19280000      -0.48900000      -0.81710000
C        1.93490000      -0.53730000       0.54590000
C        0.55900000      -0.47730000       1.26090000
N        2.80680000      -1.65230000       0.82350000
C        4.11150000      -1.51740000       1.18760000
O        4.69850000      -0.46480000       1.32370000
H        0.68070000       2.07000000       0.13680000
H       -0.52340000       1.86200000      -1.13780000
H       -1.03060000       1.86860000       0.56590000
H       -1.66530000      -0.25550000      -1.13710000
H        0.99950000      -1.49480000      -1.20170000
H        1.62280000       0.12890000      -1.60960000
H        2.53080000       0.35870000       0.72020000
H        0.46850000       0.14740000       2.15250000
H        0.17820000      -1.47880000       1.48110000
H        2.43340000      -2.58560000       0.74190000
H        4.59300000      -2.50230000       1.35140000
