20
Properties=species:S:1:pos:R:3 gdb_99278=T pbc="F F F"
C        0.20130000       1.04080000      -0.46470000
N       -0.26780000      -0.04170000       0.37480000
C       -1.21900000      -0.91850000      -0.02220000
O       -1.81470000      -0.87020000      -1.08670000
O       -1.41380000      -1.85590000       0.93000000
C       -2.52700000      -2.76180000       0.76170000
C       -2.24980000      -3.91080000      -0.21410000
C       -3.17640000      -5.09160000       0.07390000
O       -2.44590000      -3.54070000      -1.56230000
H        0.00790000       2.01550000      -0.00350000
H        1.27510000       0.95310000      -0.66320000
H       -0.34000000       0.98460000      -1.40940000
H        0.12930000      -0.18290000       1.28850000
H       -2.69230000      -3.15060000       1.76900000
H       -3.40960000      -2.20220000       0.43600000
H       -1.20520000      -4.22830000      -0.04270000
H       -4.22500000      -4.77860000       0.03030000
H       -3.02540000      -5.86050000      -0.68750000
H       -2.97700000      -5.52850000       1.05750000
H       -2.22700000      -2.59850000      -1.64710000
