20
Properties=species:S:1:pos:R:3 gdb_108432=T pbc="F F F"
C       -0.12720000       1.56290000      -0.03420000
C       -0.04490000       0.03150000      -0.07330000
C        0.76810000      -0.46800000      -1.25260000
C        0.18180000      -0.34000000      -2.68540000
C        0.49030000      -1.84890000      -2.85860000
N        0.97740000      -1.97320000      -1.44400000
C        2.46080000      -1.82270000      -1.34180000
C        2.29780000      -0.30150000      -1.16730000
O        3.03660000       0.62240000      -0.98990000
H        0.87110000       2.00570000       0.02130000
H       -0.61910000       1.95770000      -0.92970000
H       -0.70090000       1.89790000       0.83470000
H        0.40250000      -0.34490000       0.85480000
H       -1.04820000      -0.40830000      -0.13390000
H       -0.88310000      -0.09570000      -2.68430000
H        0.69510000       0.34940000      -3.35870000
H       -0.38040000      -2.48260000      -3.04600000
H        1.25390000      -2.08680000      -3.60750000
H        2.87470000      -2.32100000      -0.45780000
H        3.03300000      -2.14450000      -2.21950000
