21
Properties=species:S:1:pos:R:3 gdb_95340=T pbc="F F F"
C       -0.04020000       1.52730000       0.05040000
C       -0.00030000       0.00710000       0.00160000
C        0.65990000      -0.52440000      -1.27860000
C        0.93760000      -2.03980000      -1.23310000
O        2.32440000      -2.33930000      -1.53600000
C        2.60160000      -2.63890000      -0.15130000
C        1.09900000      -2.64790000       0.18810000
C        0.57750000      -1.82640000       1.35800000
O        0.72320000      -0.43590000       1.14730000
H        0.97620000       1.93240000       0.02560000
H       -0.59280000       1.92600000      -0.80570000
H       -0.52370000       1.86890000       0.96930000
H       -1.03190000      -0.38360000       0.06930000
H        0.04300000      -0.26780000      -2.14660000
H        1.62420000      -0.02120000      -1.40580000
H        0.26900000      -2.58750000      -1.90550000
H        3.14780000      -3.58110000      -0.03450000
H        3.16340000      -1.83100000       0.33780000
H        0.70430000      -3.66590000       0.24040000
H       -0.48500000      -2.06720000       1.53530000
H        1.12600000      -2.06230000       2.27670000
