16
Properties=species:S:1:pos:R:3 gdb_75661=T pbc="F F F"
C       -0.03520000       1.61300000       0.05510000
C        0.04590000       0.09570000      -0.00420000
C        1.11600000      -0.59570000      -0.90330000
O        1.28790000      -0.64080000      -2.08470000
C        1.71910000      -1.32270000       0.28180000
N        2.08140000      -0.23700000       1.24440000
C        0.67410000      -0.68430000       1.17970000
C       -0.00230000      -1.25670000       2.28890000
C       -0.59510000      -1.71600000       3.23010000
H        0.91370000       2.03480000       0.39350000
H       -0.25900000       2.01430000      -0.93790000
H       -0.82660000       1.93770000       0.73790000
H       -0.92140000      -0.34840000      -0.26870000
H        2.18390000      -2.29890000       0.33890000
H        2.51550000      -0.69830000       2.04480000
H       -1.11640000      -2.12860000       4.05840000
