19
Properties=species:S:1:pos:R:3 gdb_69422=T pbc="F F F"
C        0.22280000       1.56950000       0.08510000
C       -0.06450000       0.10490000      -0.05170000
C       -1.07590000      -0.62330000       0.73460000
N        0.34940000      -0.92380000       1.00210000
C        0.83880000      -1.80240000      -0.11800000
C        0.28550000      -3.23080000      -0.18700000
C        0.68700000      -4.04860000       0.95640000
N        1.01280000      -4.69840000       1.85440000
C        0.41780000      -0.78060000      -1.20700000
H        1.27420000       1.79000000      -0.12810000
H       -0.39120000       2.15160000      -0.61240000
H        0.00270000       1.91330000       1.09960000
H       -1.54090000      -0.10330000       1.56640000
H       -1.71870000      -1.36370000       0.26280000
H        1.92580000      -1.85900000      -0.02560000
H       -0.80740000      -3.23160000      -0.25240000
H        0.65280000      -3.70940000      -1.10280000
H       -0.34880000      -1.08840000      -1.92560000
H        1.26780000      -0.37250000      -1.75710000
