20
Properties=species:S:1:pos:R:3 gdb_82031=T pbc="F F F"
C       -0.11790000       1.58110000       0.04920000
C        0.01680000       0.07100000       0.17770000
C        0.88560000      -0.66700000      -0.84960000
N        2.28180000      -0.19730000      -0.65470000
C        1.73210000      -1.26480000       0.20980000
C        0.92030000      -0.54520000       1.32390000
C        1.72220000       0.38080000       2.23570000
C        0.18390000      -1.58430000       2.14770000
O       -0.94770000      -1.95940000       1.97470000
H        0.85580000       2.05640000      -0.09280000
H       -0.74610000       1.83330000      -0.81240000
H       -0.59080000       2.01510000       0.93640000
H       -0.96500000      -0.40450000       0.24630000
H        0.57320000      -1.08430000      -1.79920000
H        2.85920000      -0.65200000      -1.36150000
H        2.20500000      -2.23830000       0.26890000
H        2.40750000       0.98580000       1.63990000
H        1.06660000       1.04940000       2.80340000
H        2.31350000      -0.19680000       2.95630000
H        0.80480000      -2.02170000       2.96520000
