20
Properties=species:S:1:pos:R:3 gdb_17058=T pbc="F F F"
C        0.45670000       0.98800000       0.67280000
C        0.17220000      -0.51700000       0.74230000
C       -1.29160000      -0.84710000       0.49890000
C       -1.83360000      -0.88650000      -0.96130000
O       -1.04020000      -2.11660000      -1.19540000
C       -1.69330000      -2.30110000       0.12390000
C       -3.01740000      -1.79640000      -0.52110000
C       -4.22100000      -1.30870000       0.26870000
H        1.51100000       1.20060000       0.87420000
H        0.22110000       1.39120000      -0.31810000
H       -0.14000000       1.54320000       1.40570000
H        0.78040000      -1.05250000       0.00830000
H        0.45890000      -0.89510000       1.73270000
H       -1.93920000      -0.35040000       1.22750000
H       -1.80290000      -0.11930000      -1.73710000
H       -1.49070000      -3.23410000       0.65340000
H       -3.31550000      -2.45520000      -1.34110000
H       -3.96180000      -0.64030000       1.09320000
H       -4.91230000      -0.77110000      -0.38920000
H       -4.76840000      -2.15900000       0.68970000
