19
Properties=species:S:1:pos:R:3 gdb_72862=T pbc="F F F"
O        0.56520000       1.22640000      -0.82800000
C        0.18230000       0.04880000      -0.18610000
C        0.48050000      -1.20270000      -1.05010000
C       -1.01820000      -1.62980000      -0.97090000
C       -1.30300000      -0.46750000       0.00500000
C       -0.94790000      -0.79730000       1.50010000
C        0.44870000      -0.09880000       1.32620000
C       -1.81930000      -0.22880000       2.50730000
C       -2.54130000       0.27200000       3.32920000
H        0.31240000       1.97260000      -0.27350000
H        0.81480000      -0.92980000      -2.05240000
H        1.20280000      -1.90020000      -0.61730000
H       -1.53500000      -1.51380000      -1.92630000
H       -1.22340000      -2.63430000      -0.59010000
H       -2.19040000       0.14710000      -0.14280000
H       -0.85410000      -1.87630000       1.66150000
H        1.33140000      -0.66520000       1.63590000
H        0.46000000       0.87320000       1.82870000
H       -3.18090000       0.69940000       4.06090000
