14
Properties=species:S:1:pos:R:3 gdb_123593=T pbc="F F F"
C       -0.00160000       1.48910000      -0.13030000
C        1.53130000       1.42350000       0.12350000
C        1.15670000       0.13030000       0.90180000
N        0.05830000      -0.04210000      -0.15280000
C        0.91020000      -0.20810000      -1.32740000
C        1.98860000       0.79360000      -1.21900000
O        2.92760000       1.05940000      -1.92280000
N        0.56380000      -1.84110000      -3.08770000
N        0.70110000      -1.08610000      -2.24800000
H       -0.57940000       1.82530000       0.73400000
H       -0.37500000       1.94310000      -1.05030000
H        2.14390000       2.23740000       0.50760000
H        1.87210000      -0.69290000       0.95190000
H        0.70650000       0.31690000       1.87970000
