19
Properties=species:S:1:pos:R:3 gdb_49523=T pbc="F F F"
O        0.18860000      -0.13360000      -0.48610000
C        0.09000000       1.02210000      -0.14860000
C        1.26570000       1.95020000      -0.07780000
C        1.17030000       3.41740000      -0.64610000
C        0.30570000       3.80840000       0.59160000
C        1.45700000       2.91790000       1.15170000
C        2.39830000       3.72290000       0.23410000
C        3.86170000       3.66250000      -0.01560000
C        3.19440000       4.95950000       0.45130000
H       -0.90230000       1.43930000       0.12580000
H        2.16220000       1.40060000      -0.37370000
H        1.01120000       3.69450000      -1.68900000
H        0.33970000       4.86130000       0.87880000
H       -0.71140000       3.42090000       0.64620000
H        1.62940000       2.61760000       2.18600000
H        4.49400000       3.13830000       0.69420000
H        4.21790000       3.62090000      -1.04030000
H        3.11280000       5.76960000      -0.26700000
H        3.38860000       5.28710000       1.46800000
