16
Properties=species:S:1:pos:R:3 gdb_10662=T pbc="F F F"
C       -0.43070000       1.41080000       0.06440000
C        0.12100000       0.00570000      -0.00600000
O        0.63280000      -0.53940000       0.94800000
C        0.01630000      -0.72170000      -1.32970000
C        1.16470000      -1.70830000      -1.60830000
C       -0.15630000      -2.24650000      -1.20790000
C       -0.59240000      -0.05910000      -2.44740000
C       -1.10240000       0.49400000      -3.38670000
H        0.06840000       2.05070000      -0.67090000
H       -1.49390000       1.41370000      -0.19780000
H       -0.28800000       1.80770000       1.06960000
H        1.47570000      -1.79290000      -2.64210000
H        1.95280000      -1.70380000      -0.86480000
H       -0.26590000      -2.60780000      -0.19240000
H       -0.78310000      -2.71330000      -1.95760000
H       -1.55260000       0.98240000      -4.21520000
