21
Properties=species:S:1:pos:R:3 gdb_115154=T pbc="F F F"
C        0.77300000      -0.32970000      -1.29810000
C        0.03780000      -0.08410000       0.02260000
C       -1.46690000      -0.40510000      -0.04940000
C       -1.77030000      -1.92640000      -0.05810000
N       -2.02750000      -2.19060000       1.35060000
C       -2.48880000      -1.03530000       1.98020000
O       -3.02600000      -0.97090000       3.06650000
N       -2.20190000       0.01710000       1.13520000
C       -2.39660000       1.38850000       1.53200000
H        1.83400000      -0.08020000      -1.20690000
H        0.70980000      -1.37620000      -1.61490000
H        0.35540000       0.28500000      -2.10360000
H        0.48460000      -0.67840000       0.82870000
H        0.15800000       0.96750000       0.30700000
H       -1.88760000       0.07520000      -0.94300000
H       -2.64220000      -2.14640000      -0.69040000
H       -0.92300000      -2.50910000      -0.43020000
H       -2.48390000      -3.04520000       1.62870000
H       -2.98130000       1.37730000       2.45380000
H       -1.45100000       1.91240000       1.72540000
H       -2.94610000       1.94480000       0.76270000
