19
Properties=species:S:1:pos:R:3 gdb_74877=T pbc="F F F"
C       -0.01330000       1.50710000       0.07790000
C       -0.00260000       0.00570000      -0.00340000
C       -0.00540000      -0.65510000      -1.16940000
C        0.00730000      -2.12980000      -1.27770000
N        1.25140000      -2.84440000      -0.87910000
C        0.06200000      -2.94230000      -0.02540000
C        0.06160000      -2.21960000       1.29320000
N        1.24750000      -1.44290000       1.67280000
C        0.00160000      -0.72730000       1.29080000
H        0.89110000       1.87810000       0.57640000
H       -0.06710000       1.96400000      -0.91390000
H       -0.86650000       1.86800000       0.66700000
H       -0.02160000      -0.09200000      -2.09990000
H       -0.53620000      -2.54250000      -2.12500000
H        1.33290000      -3.69610000      -1.43050000
H       -0.48770000      -3.88030000      -0.02210000
H       -0.48590000      -2.72770000       2.08350000
H        1.33330000      -1.44180000       2.68690000
H       -0.54570000      -0.24210000       2.09740000
