10
Properties=species:S:1:pos:R:3 gdb_123289=T pbc="F F F"
C        0.09290000      -3.74500000      -0.01970000
C        0.05090000      -2.53840000      -0.01220000
C        0.00430000      -1.18270000      -0.00390000
C       -0.04130000       0.02720000       0.00350000
C       -0.06780000       1.43110000       0.01180000
N       -1.15230000       2.17070000       0.02990000
O       -0.70280000       3.43560000       0.03110000
N        0.70190000       3.42420000       0.01250000
N        1.07550000       2.23070000       0.00100000
H        0.13010000      -4.80720000      -0.02620000
