17
Properties=species:S:1:pos:R:3 gdb_79904=T pbc="F F F"
O       -0.00950000       1.44350000      -0.08320000
C        0.02110000       0.04080000       0.00720000
C       -0.03210000      -0.64100000       1.40270000
C       -1.50400000      -0.13290000       1.50770000
O       -2.35870000      -0.84860000       2.36950000
C       -2.58680000      -2.14710000       1.88410000
O       -1.40160000      -2.76050000       1.43730000
C       -0.63770000      -1.86800000       0.66180000
C       -1.36400000      -0.63350000       0.02310000
H        0.86960000       1.77630000       0.12260000
H        0.74100000      -0.39620000      -0.69780000
H        0.72650000      -0.65310000       2.18570000
H       -1.66090000       0.92980000       1.67330000
H       -2.98720000      -2.74890000       2.70260000
H       -3.31140000      -2.10590000       1.05300000
H        0.02560000      -2.45850000       0.02570000
H       -2.10240000      -0.61590000      -0.77820000
