16
Properties=species:S:1:pos:R:3 gdb_16944=T pbc="F F F"
C       -0.02200000       1.49140000       0.04400000
C       -0.05290000       0.00640000      -0.04190000
C       -0.07280000      -0.82470000      -1.08140000
C        0.00690000      -2.24440000      -0.46810000
O       -0.75880000      -2.04270000       0.73200000
C        0.03120000      -0.93850000       1.19470000
C        1.44140000      -1.58320000       1.18410000
C        1.42560000      -2.40590000       0.14050000
H        0.90070000       1.83800000       0.52970000
H       -0.07530000       1.95460000      -0.94500000
H       -0.85410000       1.87670000       0.64690000
H       -0.06760000      -0.59800000      -2.13820000
H       -0.38450000      -3.07190000      -1.05760000
H       -0.33770000      -0.54910000       2.14320000
H        2.24670000      -1.33990000       1.86190000
H        2.21580000      -3.01760000      -0.27020000
