18
Properties=species:S:1:pos:R:3 gdb_128463=T pbc="F F F"
C        0.14240000       1.31590000      -0.21970000
O        0.03740000      -0.08530000      -0.09410000
C       -1.28330000      -0.56770000       0.07130000
C       -2.04340000      -0.63060000      -1.26300000
C       -1.15010000      -1.91760000       0.71310000
C       -0.05600000      -2.63460000       1.13730000
N       -0.47790000      -3.82010000       1.66270000
N       -1.77360000      -3.88350000       1.59280000
N       -2.19010000      -2.73400000       1.01610000
H        1.20840000       1.55020000      -0.25900000
H       -0.33120000       1.69540000      -1.13610000
H       -0.30390000       1.83360000       0.64310000
H       -1.83130000       0.10220000       0.75800000
H       -1.51630000      -1.28530000      -1.96160000
H       -3.05810000      -1.01670000      -1.12060000
H       -2.13190000       0.36430000      -1.70740000
H        0.98390000      -2.36200000       1.08970000
H       -3.17690000      -2.58970000       0.87410000
