23
Properties=species:S:1:pos:R:3 gdb_80546=T pbc="F F F"
C       -0.12080000       1.65580000      -0.04610000
C       -0.00320000       0.13890000       0.00580000
C        1.13430000      -0.57640000      -0.76390000
O        2.32870000      -0.00680000      -0.19070000
C        2.08230000      -0.14810000       1.23830000
C        2.38910000       1.12560000       2.01190000
C        0.64120000      -0.68620000       1.18350000
C        0.87930000      -1.82730000       0.12220000
C       -0.25590000      -2.78310000      -0.21940000
H        0.85670000       2.13310000      -0.13250000
H       -0.71250000       1.95210000      -0.91950000
H       -0.62730000       2.05660000       0.83890000
H       -0.97000000      -0.30480000      -0.23530000
H        1.22610000      -0.59660000      -1.85030000
H        2.75150000      -0.93240000       1.62160000
H        1.69410000       1.93850000       1.80320000
H        2.35860000       0.91670000       3.08700000
H        3.39990000       1.46670000       1.76650000
H        0.12750000      -0.86000000       2.13010000
H        1.79130000      -2.40720000       0.29940000
H       -1.20940000      -2.28520000      -0.41210000
H       -0.00570000      -3.36910000      -1.11090000
H       -0.41580000      -3.49130000       0.60110000
