19
Properties=species:S:1:pos:R:3 gdb_29693=T pbc="F F F"
C       -0.04310000       1.46130000       0.00690000
N        0.02110000       0.01430000      -0.00370000
C        0.06920000      -0.82900000      -1.09430000
C        0.09040000      -0.33490000      -2.50060000
N        0.09260000      -2.08620000      -0.72260000
C        0.05120000      -2.09600000       0.66210000
C        0.06460000      -3.36230000       1.45460000
C        0.00570000      -0.80190000       1.10520000
O       -0.04970000      -0.21340000       2.33030000
H        0.66610000       1.87680000      -0.71360000
H       -1.04730000       1.82370000      -0.24110000
H        0.21810000       1.81690000       1.00420000
H        0.96570000       0.29310000      -2.70990000
H        0.12450000      -1.20030000      -3.16370000
H       -0.80000000       0.25620000      -2.74870000
H        0.99920000      -3.91900000       1.31870000
H       -0.04920000      -3.16920000       2.52830000
H       -0.75380000      -4.02650000       1.15580000
H        0.06340000      -0.89810000       2.99660000
