17
Properties=species:S:1:pos:R:3 gdb_18904=T pbc="F F F"
C        0.02800000       1.54370000      -0.01200000
C       -0.01120000       0.05200000      -0.09320000
C        0.62060000      -0.87750000      -1.16120000
C       -0.44600000      -1.89160000      -0.77980000
C        0.87500000      -1.79960000      -0.00850000
N        0.59640000      -0.79440000       1.06080000
C       -0.80700000      -1.12080000       1.51530000
C       -1.26490000      -0.88900000       0.06460000
H        1.06320000       1.90050000       0.00760000
H       -0.47530000       1.99310000      -0.87520000
H       -0.46930000       1.90120000       0.89610000
H        1.16520000      -0.69930000      -2.07870000
H       -0.77290000      -2.77460000      -1.31130000
H        1.58190000      -2.61040000       0.10940000
H       -0.93290000      -2.11170000       1.96200000
H       -1.15240000      -0.35070000       2.21130000
H       -2.28070000      -0.63420000      -0.23840000
