15
Properties=species:S:1:pos:R:3 gdb_25888=T pbc="F F F"
N       -0.12490000       1.31670000      -0.01060000
C        0.03750000      -0.03470000       0.02040000
O        1.12430000      -0.59050000       0.05490000
C       -1.23890000      -0.78290000       0.00790000
C       -1.37680000      -2.14130000       0.02380000
N       -2.73980000      -2.36670000       0.00550000
C       -3.35430000      -1.14330000      -0.01750000
N       -4.73550000      -1.01700000      -0.11890000
N       -2.48340000      -0.16490000      -0.01070000
H        0.68900000       1.90610000      -0.00840000
H       -1.05060000       1.71010000      -0.03760000
H       -0.65130000      -2.93490000       0.05470000
H       -3.19520000      -3.26060000      -0.06980000
H       -5.24930000      -1.54930000       0.57320000
H       -4.99620000      -0.04050000      -0.06660000
