15
Properties=species:S:1:pos:R:3 gdb_31196=T pbc="F F F"
C        0.13610000       1.61200000      -0.09730000
C       -0.06750000       0.09500000       0.06780000
C        0.56760000      -0.45240000       1.29300000
C        0.10230000      -1.05890000       2.42590000
N        1.17090000      -1.36540000       3.27130000
C        2.19970000      -0.93990000       2.62610000
O        1.92220000      -0.37410000       1.42130000
C       -1.24890000      -1.35420000       2.74100000
N       -2.36170000      -1.58010000       2.96590000
H        1.19950000       1.86090000      -0.14660000
H       -0.33890000       1.95640000      -1.01950000
H       -0.30460000       2.15930000       0.74060000
H       -1.13400000      -0.14440000       0.11480000
H        0.33820000      -0.42770000      -0.80730000
H        3.23750000      -0.97620000       2.91680000
