16
Properties=species:S:1:pos:R:3 gdb_39708=T pbc="F F F"
C       -0.06790000       1.52210000      -0.00350000
O        1.13620000       0.72480000      -0.00400000
C       -0.11600000       0.06630000       0.01160000
C       -0.47560000      -0.99170000       1.05860000
C       -1.93280000      -1.36770000       0.73240000
C       -1.58180000      -2.58280000      -0.03710000
C       -0.10140000      -2.12030000       0.00270000
C       -0.47460000      -0.99770000      -1.02060000
N       -1.93830000      -1.33880000      -0.78490000
H       -0.24940000       2.08230000       0.91270000
H       -0.26440000       2.06380000      -0.92730000
H       -0.12730000      -0.96540000       2.08800000
H       -2.84880000      -1.08590000       1.23520000
H       -2.08620000      -3.52950000      -0.18350000
H        0.81650000      -2.69950000       0.02700000
H       -0.18890000      -0.94660000      -2.06910000
