13
Properties=species:S:1:pos:R:3 gdb_179=T pbc="F F F"
C        0.00750000       1.47500000       0.02480000
C       -0.00930000      -0.02530000       0.01810000
C       -0.11590000      -0.77220000       1.32540000
O       -0.12160000      -2.16690000       1.18760000
N        0.06050000      -0.75370000      -1.02580000
O        0.15730000      -0.00340000      -2.20290000
H        0.92720000       1.84800000      -0.43680000
H       -0.82410000       1.86810000      -0.56860000
H       -0.06450000       1.86750000       1.04170000
H        0.72240000      -0.45310000       1.96880000
H       -1.03310000      -0.43290000       1.83730000
H       -0.05250000      -2.34050000       0.23830000
H        0.20030000      -0.68490000      -2.88210000
