19
Properties=species:S:1:pos:R:3 gdb_122738=T pbc="F F F"
C        0.03380000       1.54300000      -0.08550000
C        0.01760000       0.02590000      -0.01380000
O        0.66260000      -0.48630000      -1.16550000
C        0.70590000      -1.89020000      -1.20450000
C        1.42770000      -2.28530000      -2.49880000
C        1.54380000      -3.72340000      -2.66850000
C        1.63670000      -4.92050000      -2.80300000
C        1.73120000      -6.35070000      -2.93390000
O        2.25360000      -6.92400000      -3.86250000
H        1.06170000       1.91460000      -0.12280000
H       -0.48940000       1.89060000      -0.98070000
H       -0.45870000       1.97000000       0.79300000
H        0.53340000      -0.32600000       0.89530000
H       -1.01790000      -0.35000000       0.03720000
H        1.24480000      -2.29720000      -0.33360000
H       -0.30840000      -2.32120000      -1.19250000
H        0.89020000      -1.85310000      -3.35170000
H        2.42540000      -1.82940000      -2.50270000
H        1.27480000      -6.91230000      -2.09300000
