17
Properties=species:S:1:pos:R:3 gdb_98494=T pbc="F F F"
C       -0.05320000       1.45110000      -0.25920000
N       -0.15890000       0.00720000      -0.35580000
C       -1.21250000      -0.67830000       0.14790000
O       -2.15920000      -0.16540000       0.72140000
C       -1.16740000      -2.18680000      -0.03830000
C       -1.81930000      -3.00450000       1.08170000
C       -2.52960000      -2.86580000      -0.21510000
C       -0.03480000      -2.74720000      -0.71860000
N        0.90020000      -3.14660000      -1.27340000
H        0.84120000       1.74330000       0.30120000
H       -0.01090000       1.90970000      -1.25270000
H       -0.93820000       1.81250000       0.26470000
H        0.57810000      -0.50540000      -0.81450000
H       -1.35220000      -3.95030000       1.32710000
H       -2.17230000      -2.40800000       1.91390000
H       -3.36300000      -2.17560000      -0.25990000
H       -2.56540000      -3.71330000      -0.88840000
