19
Properties=species:S:1:pos:R:3 gdb_82633=T pbc="F F F"
C       -0.11800000       1.54250000      -0.04690000
C       -0.00180000       0.05730000       0.05010000
C        0.03640000      -1.02420000      -1.02720000
C        1.32460000      -1.62730000      -0.46810000
C        0.92480000      -0.95080000       0.86980000
C       -0.36390000      -1.70900000       1.30190000
O       -0.95640000      -1.25560000       2.50820000
C       -1.01190000      -1.09120000       0.07240000
O       -2.35200000      -1.09580000      -0.24170000
H        0.78930000       2.00250000      -0.45600000
H       -0.95160000       1.81060000      -0.70560000
H       -0.30850000       2.00810000       0.92830000
H       -0.27590000      -0.92040000      -2.05960000
H        1.44370000      -2.71740000      -0.46370000
H        2.20950000      -1.16520000      -0.91480000
H        1.65870000      -0.68050000       1.62770000
H       -0.31000000      -2.79940000       1.39140000
H       -0.91240000      -0.29140000       2.50590000
H       -2.83030000      -0.92610000       0.57940000
