23
Properties=species:S:1:pos:R:3 gdb_112711=T pbc="F F F"
C       -0.43470000       1.34860000      -0.14890000
C       -0.10870000      -0.14570000      -0.18680000
C        0.91450000      -0.50450000      -1.26710000
C        1.19300000      -2.02020000      -1.39200000
C        0.32580000      -2.44460000      -2.58580000
O       -1.03110000      -2.66890000      -2.22320000
C        0.39880000      -1.18750000      -3.46330000
C       -0.73540000      -0.99410000      -4.45540000
O        0.41640000      -0.09310000      -2.54770000
H        0.45770000       1.94380000       0.07740000
H       -0.81960000       1.67760000      -1.11740000
H       -1.18630000       1.57110000       0.61470000
H        0.28930000      -0.46920000       0.78450000
H       -1.01640000      -0.72910000      -0.37680000
H        1.84840000       0.04350000      -1.07180000
H        2.24790000      -2.20700000      -1.61780000
H        0.94670000      -2.57230000      -0.47990000
H        0.73470000      -3.31910000      -3.11100000
H       -1.05200000      -3.38820000      -1.58490000
H        1.35890000      -1.22440000      -4.00740000
H       -1.69620000      -1.00750000      -3.93900000
H       -0.61940000      -0.03610000      -4.96920000
H       -0.72770000      -1.79130000      -5.20540000
