21
Properties=species:S:1:pos:R:3 gdb_93712=T pbc="F F F"
C       -0.05880000       1.56820000       0.05060000
C        0.07720000       0.05710000      -0.06230000
C        0.96630000      -0.44080000      -1.22280000
C        1.40280000      -1.85270000      -0.78030000
C        1.12990000      -1.88140000       0.77580000
C        2.35820000      -2.29140000       1.59970000
N        0.66810000      -0.53200000       1.15070000
C        0.03110000      -2.83270000       1.05590000
N       -0.81690000      -3.59250000       1.25540000
H        0.92420000       2.04240000       0.16410000
H       -0.52490000       1.98270000      -0.84800000
H       -0.67260000       1.84160000       0.91310000
H       -0.92370000      -0.38270000      -0.17370000
H        0.45030000      -0.44190000      -2.18680000
H        1.83660000       0.22000000      -1.31740000
H        0.83170000      -2.63320000      -1.28720000
H        2.46030000      -2.04230000      -0.97990000
H        3.19480000      -1.62500000       1.36460000
H        2.14380000      -2.22780000       2.66960000
H        2.65850000      -3.31560000       1.36630000
H        1.48150000       0.01560000       1.42210000
