16
Properties=species:S:1:pos:R:3 gdb_26448=T pbc="F F F"
C        0.11200000       1.47130000       0.55250000
C       -0.08600000       0.07530000      -0.03650000
C        0.84580000      -0.95620000       0.60650000
O        1.71220000      -0.68370000       1.39530000
C       -1.49700000      -0.43030000       0.03880000
C       -2.56410000       0.03910000       0.73230000
O       -3.62930000      -0.78440000       0.48750000
C       -3.13880000      -1.72410000      -0.34730000
N       -1.89250000      -1.57680000      -0.65310000
H        1.15950000       1.76820000       0.47640000
H       -0.50410000       2.20560000       0.02690000
H       -0.15070000       1.48840000       1.61440000
H        0.19180000       0.07290000      -1.10260000
H        0.65930000      -2.00050000       0.27870000
H       -2.74410000       0.87460000       1.38490000
H       -3.82400000      -2.49030000      -0.67460000
