17
Properties=species:S:1:pos:R:3 gdb_88902=T pbc="F F F"
O       -0.20990000       1.47180000       0.42660000
C       -0.05260000       0.09570000       0.22970000
C       -0.78040000      -0.87190000       1.12980000
C       -1.24680000      -0.65050000      -0.29390000
C       -2.54520000       0.10010000      -0.56140000
C       -3.72720000      -0.73320000      -0.39150000
C       -4.70250000      -1.43600000      -0.24890000
C       -5.79880000      -2.22580000      -0.08740000
C       -6.77230000      -2.92620000       0.05650000
H        0.23860000       1.70960000       1.24450000
H        0.92530000      -0.19800000      -0.15140000
H       -0.30740000      -1.81240000       1.38950000
H       -1.39150000      -0.43780000       1.91490000
H       -1.04190000      -1.44980000      -0.99910000
H       -2.59920000       0.96970000       0.10260000
H       -2.53050000       0.50490000      -1.58240000
H       -7.62750000      -3.54210000       0.18240000
