17
Properties=species:S:1:pos:R:3 gdb_24442=T pbc="F F F"
C       -0.01330000       1.49790000      -0.01220000
C        1.41480000       2.05680000       0.04180000
O        2.10910000       1.71230000       1.24760000
C        1.94870000       0.40010000       1.56150000
C        1.01790000      -0.42840000       1.01510000
C       -0.02030000      -0.04890000       0.02400000
O        1.14020000      -1.67520000       1.56180000
C        2.15970000      -1.61120000       2.46010000
C        2.70000000      -0.36370000       2.51000000
H       -0.57430000       1.88740000       0.84450000
H       -0.50170000       1.86730000      -0.91930000
H        1.99440000       1.68420000      -0.81610000
H        1.41030000       3.14880000       0.00850000
H       -1.01090000      -0.41900000       0.31310000
H        0.18910000      -0.46270000      -0.97240000
H        2.38300000      -2.52860000       2.97880000
H        3.51750000      -0.02890000       3.12750000
