16
Properties=species:S:1:pos:R:3 gdb_52991=T pbc="F F F"
C        0.00480000       1.50810000      -0.05860000
C       -0.02980000       0.05530000      -0.01360000
C       -0.05480000      -1.14980000       0.02380000
C       -0.04190000      -2.56330000       0.10900000
N       -0.36450000      -3.44820000      -1.08660000
C       -1.15740000      -3.59640000       0.12880000
C       -0.36170000      -4.55240000       1.02390000
C        0.76540000      -3.47850000       1.02900000
O        1.76850000      -3.33730000       1.65760000
H        0.90640000       1.89000000       0.43250000
H        0.00870000       1.87450000      -1.09100000
H       -0.86170000       1.94560000       0.44950000
H       -0.87080000      -2.83620000      -1.72840000
H       -2.21940000      -3.39200000       0.16010000
H       -0.76510000      -4.67240000       2.03330000
H       -0.12430000      -5.52580000       0.59050000
