17
Properties=species:S:1:pos:R:3 gdb_71798=T pbc="F F F"
C       -0.04930000       1.47470000      -0.00160000
C       -0.00740000      -0.02150000       0.00210000
O       -1.20280000      -0.64520000      -0.43720000
C       -0.85000000      -1.98440000      -0.31920000
C        0.60900000      -2.23880000      -0.83560000
O        0.82220000      -3.14400000       0.27960000
C       -0.06170000      -2.25300000       1.00980000
C        0.65100000      -0.89170000       1.05170000
C        1.17550000      -0.88060000      -0.39170000
H        0.90230000       1.88380000       0.34780000
H       -0.23740000       1.85300000      -1.01110000
H       -0.84400000       1.84010000       0.65590000
H       -1.64440000      -2.66340000      -0.61310000
H        0.88190000      -2.65010000      -1.80520000
H       -0.47290000      -2.67880000       1.92280000
H        1.19200000      -0.50960000       1.90590000
H        2.13680000      -0.48960000      -0.69390000
