21
Properties=species:S:1:pos:R:3 gdb_96097=T pbc="F F F"
C        0.00250000       1.47970000       0.09600000
C        0.03350000      -0.03720000       0.01780000
C        0.69440000      -0.55610000      -1.26070000
O        0.78580000      -1.97070000      -1.25470000
C        1.50750000      -2.42740000      -0.11930000
C        0.87870000      -1.91200000       1.15270000
C       -0.20110000      -2.69470000       1.85840000
C        1.17540000      -2.52990000       2.47780000
O        0.76670000      -0.51120000       1.15290000
H        1.01630000       1.88870000       0.04550000
H       -0.58460000       1.89730000      -0.72760000
H       -0.44700000       1.80010000       1.03950000
H       -0.98970000      -0.44380000       0.06270000
H        0.10440000      -0.28360000      -2.14100000
H        1.69820000      -0.10660000      -1.35510000
H        1.49670000      -3.52010000      -0.15600000
H        2.55390000      -2.08200000      -0.17490000
H       -1.01060000      -2.12430000       2.29920000
H       -0.48400000      -3.66640000       1.46810000
H        1.83900000      -3.38760000       2.51340000
H        1.26670000      -1.84800000       3.31550000
