17
Properties=species:S:1:pos:R:3 gdb_7606=T pbc="F F F"
C       -0.12590000       1.49410000      -0.12900000
C        0.05460000      -0.00290000      -0.04220000
C        1.39890000      -0.63920000      -0.20450000
C        0.73840000      -0.64180000       1.16490000
N        1.26920000       0.14600000       2.25890000
H        2.24990000       0.36920000       2.14250000
H        0.75880000       1.00960000       2.40380000
H        0.71330000      -1.39110000       3.27360000
C        0.16500000      -1.97210000       1.60360000
O        0.26530000      -2.18970000       2.92150000
O       -0.33550000      -2.76290000       0.84390000
H        0.74320000       2.03490000       0.25940000
H       -0.26090000       1.80170000      -1.17100000
H       -1.00940000       1.82640000       0.42820000
H       -0.77630000      -0.59620000      -0.41100000
H        1.46130000      -1.59460000      -0.71130000
H        2.25940000       0.01340000      -0.32140000
