17
Properties=species:S:1:pos:R:3 gdb_18234=T pbc="F F F"
O       -0.09830000       0.02460000       0.05030000
C        0.00230000       1.23590000       0.03250000
N        1.17280000       1.91520000       0.09470000
C        2.47320000       1.25130000       0.20310000
C        3.40260000       2.32670000       0.81640000
C        2.72500000       3.65790000       0.51170000
C        2.27920000       3.93140000      -0.91010000
C        1.31300000       3.34680000       0.09450000
H       -0.87030000       1.91720000      -0.02410000
H        2.37190000       0.35110000       0.81190000
H        2.82480000       0.93470000      -0.78610000
H        3.46500000       2.20000000       1.90210000
H        4.41850000       2.25460000       0.41770000
H        2.94030000       4.50310000       1.15460000
H        2.13650000       4.96940000      -1.19020000
H        2.63760000       3.29570000      -1.71320000
H        0.44630000       3.90430000       0.42850000
