19
Properties=species:S:1:pos:R:3 gdb_96707=T pbc="F F F"
C        0.06230000       1.52190000       0.12620000
N        0.05830000       0.07390000       0.11210000
C        0.49260000      -0.57630000      -0.88070000
O        0.50380000      -1.91280000      -0.97640000
C       -0.03570000      -2.68180000       0.13710000
C       -0.46940000      -4.01170000      -0.46080000
C        1.02130000      -2.82090000       1.22700000
C        1.04780000       0.01570000      -2.09230000
N        1.47990000       0.53990000      -3.02740000
H        0.64390000       1.86710000       0.98790000
H        0.46910000       1.98550000      -0.78160000
H       -0.96340000       1.87770000       0.27250000
H       -0.89710000      -2.13160000       0.52600000
H        0.38680000      -4.54120000      -0.88960000
H       -0.91120000      -4.64220000       0.31610000
H       -1.21180000      -3.86070000      -1.24860000
H        1.30240000      -1.84260000       1.62110000
H        0.62540000      -3.42160000       2.05170000
H        1.91340000      -3.31910000       0.83500000
