18
Properties=species:S:1:pos:R:3 gdb_40787=T pbc="F F F"
C        0.15890000       1.52710000       0.03910000
N        1.16750000       0.48030000      -0.20300000
C       -0.23160000       0.09890000       0.05140000
C       -0.46260000      -0.64750000       1.34060000
O       -1.83770000      -0.50310000       1.71040000
C       -2.31710000      -1.69470000       2.32260000
C       -1.39780000      -2.79710000       1.84670000
O       -1.21750000      -2.79650000       0.42600000
C       -0.23590000      -2.14490000       1.24490000
H        0.27550000       2.06240000       0.97760000
H       -0.17310000       2.14030000      -0.79410000
H        1.36930000       0.41240000      -1.19640000
H       -0.82930000      -0.27090000      -0.77780000
H        0.20490000      -0.23970000       2.11710000
H       -2.27650000      -1.63290000       3.42240000
H       -3.36050000      -1.83290000       2.01970000
H       -1.36770000      -3.76400000       2.34110000
H        0.76750000      -2.55890000       1.22980000
