23
Properties=species:S:1:pos:R:3 gdb_75468=T pbc="F F F"
C       -0.13060000       1.45490000       0.18190000
C        0.00590000      -0.02900000       0.03730000
C       -0.01600000      -0.72610000      -1.10040000
C        0.07270000      -2.21570000      -0.88070000
C        0.49890000      -2.31580000       0.60370000
C        0.12390000      -0.95210000       1.24600000
C        1.10850000      -0.49820000       2.30640000
C        0.68450000       0.40610000       3.43740000
C        1.01830000      -1.03920000       3.71200000
H        0.72710000       1.88890000       0.70880000
H       -0.21910000       1.94490000      -0.79180000
H       -1.01780000       1.71560000       0.77410000
H       -0.13520000      -0.28620000      -2.08600000
H       -0.90150000      -2.69410000      -1.05910000
H        0.78100000      -2.71080000      -1.55540000
H        0.04960000      -3.16450000       1.12590000
H        1.58570000      -2.44240000       0.66250000
H       -0.86560000      -1.02130000       1.72850000
H        2.11630000      -0.34010000       1.92740000
H        1.37590000       1.16900000       3.77830000
H       -0.35860000       0.70150000       3.48770000
H        0.19780000      -1.71170000       3.94200000
H        1.93720000      -1.26550000       4.24120000
