17
Properties=species:S:1:pos:R:3 gdb_92075=T pbc="F F F"
O        0.04750000       1.37470000       0.21130000
C       -0.02610000      -0.00810000       0.01340000
C       -1.47520000      -0.50120000      -0.11490000
C       -1.43550000      -2.01120000      -0.29310000
C       -1.68670000      -2.65700000      -1.64030000
C       -0.28910000      -2.53920000      -1.11250000
O        0.57600000      -1.61830000      -1.75900000
C        0.75440000      -0.38510000      -1.24600000
O        1.48670000       0.39950000      -1.79330000
H        0.72640000       1.69120000      -0.40500000
H        0.44240000      -0.54840000       0.85530000
H       -2.03640000      -0.21800000       0.77860000
H       -1.94950000       0.00270000      -0.96310000
H       -1.69000000      -2.59810000       0.58350000
H       -2.14160000      -3.64020000      -1.67370000
H       -1.94910000      -2.00270000      -2.46500000
H        0.25330000      -3.42590000      -0.80490000
