15
Properties=species:S:1:pos:R:3 gdb_97351=T pbc="F F F"
C       -0.12710000       1.34480000      -0.19980000
N        0.06500000      -0.09100000      -0.12380000
C        0.56050000      -0.54780000       0.93100000
O        0.75070000      -1.90960000       1.02170000
C        1.29590000      -2.39120000       2.18780000
O        1.62160000      -1.73730000       3.13330000
N        1.38770000      -3.76830000       2.04080000
C        1.88310000      -4.67600000       2.97520000
O        2.31170000      -4.41250000       4.06220000
H        0.42700000       1.73550000      -1.05990000
H       -1.18660000       1.55560000      -0.37980000
H        0.19210000       1.88920000       0.70160000
H        0.87620000      -0.00440000       1.82380000
H        1.05740000      -4.13570000       1.16010000
H        1.82520000      -5.70380000       2.56640000
