19
Properties=species:S:1:pos:R:3 gdb_81923=T pbc="F F F"
C       -0.18750000       1.56850000       0.00770000
C        0.02570000       0.05310000      -0.00770000
C        0.83610000      -0.47460000      -1.18910000
C        2.27460000      -0.13800000      -1.29150000
N        1.84630000      -1.42630000      -0.69220000
C        1.79950000      -1.33170000       0.74930000
O        2.52560000      -1.93910000       1.49640000
N        0.80460000      -0.45180000       1.11330000
C        0.41590000      -0.27230000       2.49330000
H        0.76760000       2.10080000       0.02790000
H       -0.73560000       1.87550000      -0.88840000
H       -0.77480000       1.87860000       0.87720000
H       -0.96390000      -0.43270000      -0.01930000
H        0.29160000      -0.77720000      -2.07750000
H        2.78220000      -0.23350000      -2.24600000
H        2.69000000       0.60980000      -0.62160000
H        1.10420000      -0.85930000       3.10370000
H        0.47490000       0.77840000       2.79780000
H       -0.60940000      -0.62630000       2.66640000
