23
Properties=species:S:1:pos:R:3 gdb_86261=T pbc="F F F"
C       -1.32640000       0.57280000      -1.29750000
C       -0.08330000      -0.23670000      -0.96640000
C        1.32020000       0.30760000      -1.33590000
C        1.87950000      -0.33480000      -0.04090000
C        2.98720000       0.35740000       0.73640000
C        0.40560000      -0.37590000       0.53130000
C        0.05240000       0.83550000       1.40880000
C        0.02790000      -1.60880000       1.20170000
C       -0.28040000      -2.63680000       1.74690000
H       -1.25850000       1.60010000      -0.92630000
H       -1.46880000       0.62440000      -2.38280000
H       -2.22530000       0.11710000      -0.86780000
H       -0.19180000      -1.24840000      -1.36980000
H        1.75280000      -0.01160000      -2.28720000
H        1.35440000       1.40190000      -1.29270000
H        2.17620000      -1.36660000      -0.25320000
H        2.74200000       1.40020000       0.96050000
H        3.18840000      -0.15350000       1.68450000
H        3.91700000       0.35590000       0.15660000
H        0.32700000       1.77790000       0.92640000
H       -1.02130000       0.86020000       1.61450000
H        0.57530000       0.78030000       2.36750000
H       -0.55210000      -3.54380000       2.22720000
