18
Properties=species:S:1:pos:R:3 gdb_128160=T pbc="F F F"
C        0.18300000       1.08550000       0.62210000
N       -0.01630000       0.01100000      -0.35660000
C       -1.26930000      -0.65510000      -0.28360000
C       -1.36160000      -1.99630000       0.04320000
O       -0.38220000      -2.87280000       0.32730000
N       -2.66200000      -2.34600000       0.02790000
C       -3.24190000      -3.63040000       0.34580000
N       -3.45800000      -1.28140000      -0.29030000
C       -2.61800000      -0.26980000      -0.47810000
H        1.18260000       1.51200000       0.49130000
H       -0.55420000       1.89960000       0.54750000
H        0.11800000       0.66880000       1.63130000
H        0.15840000       0.36440000      -1.29120000
H        0.43840000      -2.36620000       0.21920000
H       -3.61590000      -3.65470000       1.37500000
H       -4.07190000      -3.82000000      -0.33710000
H       -2.48010000      -4.40240000       0.22480000
H       -3.00910000       0.69930000      -0.75540000
