18
Properties=species:S:1:pos:R:3 gdb_108073=T pbc="F F F"
C       -0.40980000       1.19400000       0.17020000
O        0.21860000      -0.07480000       0.00920000
C        0.82360000      -0.53940000       1.14280000
C        2.19130000      -0.22780000       1.72630000
N        2.04920000      -1.50020000       2.54740000
C        0.93170000      -1.13860000       3.51530000
C       -0.00350000      -1.12980000       2.32420000
O       -1.37620000      -1.05520000       2.25770000
C        0.97730000      -1.97680000       1.54340000
H        0.31730000       1.96700000       0.45460000
H       -0.84020000       1.45430000      -0.79880000
H       -1.20330000       1.14770000       0.92370000
H        3.00120000      -0.34930000       1.00200000
H        2.35130000       0.67980000       2.31890000
H        0.76280000      -1.97460000       4.20210000
H        1.09900000      -0.21900000       4.08750000
H       -1.74970000      -1.88080000       2.58570000
H        0.96450000      -2.92510000       1.02540000
