22
Properties=species:S:1:pos:R:3 gdb_110583=T pbc="F F F"
C       -0.20210000       1.54950000       0.14090000
C        0.19780000       0.09210000      -0.11930000
C        0.84250000      -0.55310000       1.09550000
N       -0.07100000      -0.79420000       2.30080000
C       -0.53650000      -2.14330000       1.68440000
C       -0.23460000      -2.88900000       2.98690000
C        0.90850000      -1.89120000       2.79160000
C        0.96570000      -2.07470000       1.23770000
C        1.76200000      -3.06720000       0.42930000
H        0.67360000       2.16020000       0.38710000
H       -0.68260000       1.99320000      -0.73640000
H       -0.89730000       1.61280000       0.98290000
H       -0.68360000      -0.48400000      -0.42650000
H        0.90420000       0.04220000      -0.95870000
H        1.73640000       0.01380000       1.39570000
H       -1.42690000      -2.19380000       1.05610000
H       -0.91040000      -2.68780000       3.82220000
H        0.00880000      -3.95160000       2.90990000
H        1.73440000      -1.62660000       3.45590000
H        1.62910000      -4.08720000       0.80660000
H        1.45380000      -3.05740000      -0.62200000
H        2.83190000      -2.83330000       0.46550000
