16
Properties=species:S:1:pos:R:3 gdb_124242=T pbc="F F F"
C        0.00300000       1.52830000      -0.02780000
C        0.00260000       0.01170000       0.04580000
O        0.00380000      -0.56820000       1.11580000
C        0.00120000      -0.71520000      -1.23680000
C        0.00070000      -2.07840000      -1.43320000
C        0.00200000      -3.23770000      -0.50580000
O       -0.00100000      -2.34160000      -2.74220000
N       -0.00170000      -1.14180000      -3.47270000
C       -0.00020000      -0.20120000      -2.56920000
H        0.88450000       1.88880000      -0.56970000
H       -0.87970000       1.88930000      -0.56730000
H        0.00450000       1.93590000       0.98330000
H       -0.87760000      -3.86630000      -0.67970000
H        0.88770000      -3.85940000      -0.67350000
H       -0.00250000      -2.87260000       0.52010000
H       -0.00040000       0.82990000      -2.89420000
