18
Properties=species:S:1:pos:R:3 gdb_57621=T pbc="F F F"
C        0.08260000       1.59730000      -0.00270000
C        0.01140000       0.06600000       0.00200000
O        0.65020000      -0.47390000       1.14590000
C       -1.46540000      -0.42800000      -0.05860000
C       -2.19670000      -0.08420000       1.15370000
C       -2.74870000       0.20560000       2.18230000
C        0.76450000      -0.54670000      -1.20070000
C        2.15830000      -0.11820000      -1.28970000
N        3.25690000       0.22730000      -1.38040000
H        1.12130000       1.92330000       0.08410000
H       -0.34020000       2.01440000      -0.92280000
H       -0.48430000       2.00050000       0.84110000
H        0.15360000      -0.18360000       1.92110000
H       -1.96690000      -0.00110000      -0.93570000
H       -1.46480000      -1.51760000      -0.18290000
H       -3.26510000       0.45530000       3.07650000
H        0.74130000      -1.63740000      -1.10780000
H        0.25690000      -0.27990000      -2.13390000
