17
Properties=species:S:1:pos:R:3 gdb_31491=T pbc="F F F"
C        0.07130000       1.48910000       0.33130000
C       -0.00940000       0.03100000       0.07760000
C       -1.01240000      -0.86420000      -0.13180000
N       -2.39580000      -0.69340000      -0.12850000
N       -0.47020000      -2.13310000      -0.30330000
C        0.80950000      -1.95740000      -0.19600000
C        1.83760000      -3.03970000      -0.29150000
O        1.23870000      -4.27290000      -0.60140000
O        1.18090000      -0.69070000       0.03020000
H        0.60210000       1.70990000       1.26490000
H        0.58540000       2.02750000      -0.47450000
H       -0.93690000       1.90290000       0.42220000
H       -2.69970000       0.19190000      -0.51030000
H       -2.85760000      -1.45810000      -0.60300000
H        2.57660000      -2.77520000      -1.06250000
H        2.38840000      -3.09680000       0.66190000
H        0.28280000      -4.13290000      -0.55860000
