17
Properties=species:S:1:pos:R:3 gdb_9530=T pbc="F F F"
C       -0.12370000       1.49470000      -0.01050000
N        0.09780000       0.04730000       0.01700000
C        0.75790000      -0.50880000      -1.15840000
C        2.17520000      -0.00480000      -1.44710000
C        0.55220000      -2.03790000      -1.27490000
O       -0.30620000      -1.85010000      -2.44750000
C       -0.18160000      -0.49050000      -2.38490000
O       -0.67910000       0.32300000      -3.09680000
H        0.79520000       2.10190000      -0.02980000
H       -0.71500000       1.74960000      -0.89310000
H       -0.69700000       1.77660000       0.87700000
H        0.63420000      -0.20180000       0.84320000
H        2.83170000      -0.21050000      -0.59400000
H        2.60140000      -0.49000000      -2.33080000
H        2.17390000       1.07310000      -1.62800000
H        1.43070000      -2.63220000      -1.53430000
H       -0.01040000      -2.48670000      -0.45520000
