20
Properties=species:S:1:pos:R:3 gdb_26189=T pbc="F F F"
C        0.29100000       1.22170000      -0.56490000
C       -0.00780000      -0.00630000       0.29270000
O        0.22070000       0.24710000       1.68670000
C       -1.39430000      -0.54470000       0.08230000
C       -2.31600000      -0.41700000      -0.93540000
C       -3.46200000      -1.20010000      -0.59890000
C       -4.71230000      -1.36320000      -1.41030000
C       -3.19560000      -1.77720000       0.62330000
N       -1.94350000      -1.38280000       1.02110000
H        1.29960000       1.58430000      -0.35130000
H        0.22530000       0.98090000      -1.63000000
H       -0.42490000       2.02440000      -0.35640000
H        0.73280000      -0.78340000       0.05820000
H       -0.39670000       0.94000000       1.95060000
H       -2.18710000       0.16560000      -1.83560000
H       -4.50680000      -1.80560000      -2.39240000
H       -5.43050000      -2.01340000      -0.90180000
H       -5.20910000      -0.40260000      -1.59190000
H       -3.80020000      -2.42520000       1.23860000
H       -1.49380000      -1.59030000       1.89640000
