16
Properties=species:S:1:pos:R:3 gdb_104551=T pbc="F F F"
C       -0.04620000       1.63410000       0.06500000
C        0.18760000       0.12740000       0.19580000
C        0.67920000      -0.52380000      -1.09490000
C        0.58240000      -2.06940000      -1.18680000
C       -0.46280000      -1.77880000      -2.26140000
O       -1.18980000      -2.38430000      -2.97350000
O       -0.32530000      -0.40880000      -2.16940000
C        1.96040000       0.02840000      -1.54500000
N        2.98510000       0.45280000      -1.86780000
H        0.88190000       2.16100000      -0.17560000
H       -0.77330000       1.84470000      -0.72370000
H       -0.43170000       2.04030000       1.00360000
H        0.92230000      -0.08620000       0.98100000
H       -0.74200000      -0.38050000       0.47620000
H        1.47000000      -2.58610000      -1.55250000
H        0.19980000      -2.56520000      -0.29370000
