19
Properties=species:S:1:pos:R:3 gdb_96284=T pbc="F F F"
C       -0.22810000       1.47710000       0.18190000
C       -0.01650000      -0.01890000      -0.00770000
C        0.69900000      -0.35840000      -1.31850000
C        0.42610000      -1.80810000      -1.75100000
O        0.21340000      -2.66660000      -0.64480000
C        1.28790000      -2.72450000       0.25710000
C        1.41480000      -1.59550000       1.29220000
O        2.11650000      -1.76210000       2.25440000
O        0.75910000      -0.42750000       1.14900000
H        0.72270000       2.01430000       0.11230000
H       -0.90490000       1.86210000      -0.58670000
H       -0.66380000       1.67780000       1.16350000
H       -0.97910000      -0.53960000       0.03570000
H        0.36430000       0.32110000      -2.10950000
H        1.77020000      -0.17000000      -1.18260000
H       -0.49960000      -1.86440000      -2.33110000
H        1.24360000      -2.18740000      -2.38340000
H        1.17170000      -3.63970000       0.84260000
H        2.25690000      -2.79570000      -0.26240000
