15
Properties=species:S:1:pos:R:3 gdb_49834=T pbc="F F F"
N       -0.05310000       1.16580000      -0.07480000
C       -0.08480000      -0.07930000       0.19760000
N       -1.27500000      -0.74910000       0.29420000
C       -2.53840000      -0.26200000      -0.27640000
C       -2.92250000      -1.72630000      -0.51710000
O       -3.86970000      -2.30450000      -0.93850000
C       -1.51750000      -2.18780000       0.02920000
C       -0.65060000      -2.85090000      -0.92460000
C        0.06110000      -3.39230000      -1.72800000
H        0.90500000       1.50820000      -0.06690000
H        0.77910000      -0.72240000       0.39930000
H       -3.18110000       0.29230000       0.41530000
H       -2.40830000       0.33050000      -1.19130000
H       -1.60820000      -2.78080000       0.94900000
H        0.68730000      -3.87420000      -2.43820000
