20
Properties=species:S:1:pos:R:3 gdb_53284=T pbc="F F F"
C        0.23970000       1.57180000       0.01190000
C        0.12730000       0.12160000      -0.00720000
C        0.00520000      -1.07630000      -0.00600000
C       -0.08870000      -2.50850000      -0.06290000
N       -0.52660000      -3.24830000       1.15060000
C       -1.37510000      -3.27550000      -0.04470000
C       -2.74860000      -2.63110000       0.12820000
C       -3.81830000      -3.70520000       0.36480000
O       -2.74200000      -1.68780000       1.17830000
H        1.06030000       1.90170000       0.65880000
H        0.42950000       1.96830000      -0.99170000
H       -0.68320000       2.03130000       0.38210000
H        0.70670000      -2.98130000      -0.63750000
H        0.00650000      -4.10500000       1.26320000
H       -1.37870000      -4.18630000      -0.64150000
H       -2.99180000      -2.08390000      -0.79320000
H       -3.57490000      -4.30080000       1.25150000
H       -4.78710000      -3.22750000       0.53100000
H       -3.90650000      -4.38070000      -0.49390000
H       -2.05240000      -1.98250000       1.79270000
