19
Properties=species:S:1:pos:R:3 gdb_35682=T pbc="F F F"
C       -0.41790000      -1.05030000      -0.60740000
C       -0.27860000       0.08020000      -0.21800000
C       -0.06390000       1.42750000       0.25890000
C        0.21200000       1.68210000       1.77600000
C        1.22040000       2.78640000       1.36640000
C        1.29110000       2.15860000      -0.04140000
C        2.52620000       1.36060000      -0.50530000
C        2.51060000       2.32250000      -1.70860000
O        1.35370000       3.01440000      -1.18550000
H       -0.56180000      -2.04440000      -0.95150000
H       -0.86570000       2.09000000      -0.08610000
H       -0.64440000       1.97310000       2.38550000
H        0.70150000       0.82140000       2.23640000
H        0.74770000       3.77130000       1.31090000
H        2.15430000       2.86970000       1.92700000
H        3.39680000       1.43920000       0.14830000
H        2.33220000       0.31280000      -0.73810000
H        3.37420000       2.99080000      -1.80160000
H        2.30410000       1.86530000      -2.68290000
