18
Properties=species:S:1:pos:R:3 gdb_78566=T pbc="F F F"
C        0.04950000       1.58230000      -0.04920000
C        0.05230000       0.06840000      -0.12300000
C        0.70410000      -0.66680000      -1.30910000
C        2.15390000      -0.14020000      -1.26540000
O        2.90370000       0.30860000      -2.08630000
C        2.32570000      -0.70580000       0.11100000
N        0.99340000      -0.67310000       0.81330000
C        1.22510000      -1.69510000      -0.21630000
C        1.15880000      -3.17650000      -0.06540000
H        1.03850000       2.00360000      -0.25320000
H       -0.65050000       1.99680000      -0.78240000
H       -0.26490000       1.91170000       0.94580000
H       -0.94390000      -0.32960000       0.09340000
H        0.21410000      -0.86360000      -2.25940000
H        3.21030000      -0.83000000       0.72030000
H        0.12190000      -3.52850000      -0.07960000
H        1.69850000      -3.67650000      -0.87600000
H        1.60740000      -3.47580000       0.88610000
