16
Properties=species:S:1:pos:R:3 gdb_57034=T pbc="F F F"
O       -0.02260000       1.44040000      -0.00150000
C        0.05520000       0.01730000      -0.04860000
C        0.74030000      -0.45380000      -1.25040000
C        1.34770000      -0.79320000      -2.22990000
C        0.72010000      -0.51720000       1.23190000
C       -0.01710000      -0.18920000       2.54500000
O       -0.23300000      -1.61660000       2.78640000
C        0.42240000      -1.95630000       1.62000000
N        0.64900000      -3.07530000       1.10490000
H        0.82960000       1.78800000      -0.28730000
H       -0.98700000      -0.32470000      -0.06540000
H        1.86760000      -1.11590000      -3.09830000
H        1.78540000      -0.27490000       1.22910000
H        0.58140000       0.25630000       3.34210000
H       -0.96470000       0.34240000       2.43510000
H        0.26750000      -3.83150000       1.67620000
