20
Properties=species:S:1:pos:R:3 gdb_78381=T pbc="F F F"
C        0.25230000       2.48270000      -0.43550000
C       -0.08570000       1.02760000      -0.69150000
C        0.28930000       0.18300000      -1.83270000
C        1.78290000       0.16510000      -2.19400000
O        2.56470000       1.36340000      -1.93560000
C        3.11350000       0.76480000      -0.71190000
C        3.28850000       1.68010000       0.48120000
C        2.07840000      -0.36590000      -0.80050000
N        0.61510000      -0.25420000      -0.37960000
H        1.19090000       2.79660000      -0.87920000
H       -0.55110000       3.08370000      -0.87770000
H        0.25360000       2.69600000       0.63900000
H       -1.12030000       0.83430000      -0.40180000
H       -0.44260000      -0.36310000      -2.42330000
H        2.05980000      -0.32780000      -3.12830000
H        4.09550000       0.33410000      -0.96570000
H        2.34600000       1.96530000       0.94580000
H        3.89870000       1.16820000       1.23300000
H        3.82150000       2.58860000       0.18180000
H        2.40940000      -1.38140000      -0.58730000
