20
Properties=species:S:1:pos:R:3 gdb_38927=T pbc="F F F"
C        0.16060000       1.44390000       0.69570000
C        1.51470000       1.50780000      -0.05720000
C        2.78140000       1.11570000       0.72500000
C        2.39010000      -0.35960000       0.43800000
C        1.82960000      -1.15690000       1.62340000
O        0.75390000      -1.96780000       1.19570000
C       -0.38410000      -1.19240000       0.86360000
C       -0.04820000       0.05400000       0.02280000
N        1.33860000       0.08460000      -0.55630000
H        0.25320000       1.41990000       1.78650000
H       -0.57240000       2.20990000       0.43090000
H        1.60260000       2.29230000      -0.81370000
H        3.70560000       1.42570000       0.23240000
H        2.82450000       1.41730000       1.77610000
H        3.15420000      -0.95480000      -0.06920000
H        2.59000000      -1.82920000       2.03140000
H        1.50570000      -0.48920000       2.44010000
H       -1.04260000      -1.86740000       0.31040000
H       -0.91340000      -0.88020000       1.78130000
H       -0.76880000       0.12910000      -0.79790000
