14
Properties=species:S:1:pos:R:3 gdb_7015=T pbc="F F F"
N        0.49280000       0.90550000      -1.72810000
C       -0.01950000       0.31770000      -0.73130000
C       -1.47940000      -0.13410000      -0.79800000
C       -2.18570000      -0.12750000       0.47720000
C       -2.73240000      -0.13860000       1.54830000
N        0.62470000      -0.03470000       0.47050000
C        1.94470000       0.17650000       0.78150000
O        2.77470000       0.66730000       0.05010000
H        1.48070000       1.10210000      -1.56260000
H       -1.97260000       0.51080000      -1.52940000
H       -1.49810000      -1.15000000      -1.21580000
H       -3.24340000      -0.13410000       2.47970000
H        0.03340000      -0.40820000       1.20130000
H        2.17710000      -0.16670000       1.80770000
