19
Properties=species:S:1:pos:R:3 gdb_53246=T pbc="F F F"
C        0.56250000       1.45290000      -0.70230000
C        0.25030000       0.09100000      -0.29310000
C       -0.00360000      -1.03870000       0.04080000
C       -0.32780000      -2.38580000       0.46210000
C       -0.22870000      -2.74500000       1.97970000
C       -1.57230000      -3.53800000       1.87260000
C       -1.82790000      -2.82100000       0.50650000
C       -1.36310000      -5.01920000       1.72190000
O       -1.92060000      -5.86690000       2.37100000
H        1.36100000       1.47110000      -1.45220000
H       -0.31230000       1.94770000      -1.13860000
H        0.89370000       2.05840000       0.14870000
H        0.24870000      -3.10820000      -0.12640000
H        0.65870000      -3.29720000       2.29870000
H       -0.34270000      -1.86250000       2.61120000
H       -2.30650000      -3.36720000       2.66080000
H       -2.49260000      -1.96460000       0.63060000
H       -2.18860000      -3.43260000      -0.32420000
H       -0.62340000      -5.30270000       0.93350000
