19
Properties=species:S:1:pos:R:3 gdb_39334=T pbc="F F F"
C       -0.12860000       1.41920000       0.06400000
C        1.26170000       0.79950000      -0.04930000
C        2.06880000       0.52520000       1.19930000
O        1.24890000      -0.27490000       2.06460000
C        0.14280000      -0.82050000       1.36020000
C        0.27140000      -2.28350000       0.84980000
C        0.17460000      -2.15360000      -0.68980000
O       -0.46230000      -0.89200000      -0.94380000
C        0.01650000      -0.05520000       0.05250000
H       -0.42840000       1.90120000       0.99090000
H       -0.50460000       1.89000000      -0.83780000
H        1.77680000       0.90330000      -0.99660000
H        2.99110000      -0.01360000       0.93430000
H        2.35430000       1.42000000       1.76590000
H       -0.72470000      -0.71620000       2.02010000
H        1.21550000      -2.72530000       1.17520000
H       -0.54220000      -2.89750000       1.24330000
H        1.17420000      -2.15910000      -1.14740000
H       -0.42980000      -2.92890000      -1.16480000
