13
Properties=species:S:1:pos:R:3 gdb_125474=T pbc="F F F"
C        0.06920000       1.45470000      -0.01740000
C       -0.07840000      -0.01950000      -0.02260000
N       -1.13240000      -0.71710000      -0.28630000
C       -0.69830000      -2.03480000      -0.14070000
C       -0.98790000      -3.36080000      -0.18690000
O        0.13530000      -4.05390000       0.12730000
N        1.22050000      -3.18630000       0.39540000
C        0.66370000      -2.02340000       0.22070000
O        1.08290000      -0.73880000       0.30240000
H        0.83520000       1.76650000      -0.73470000
H       -0.88480000       1.91020000      -0.28110000
H        0.38240000       1.80580000       0.97100000
H       -1.85700000      -3.95960000      -0.40380000
