21
Properties=species:S:1:pos:R:3 gdb_93113=T pbc="F F F"
C        0.00510000       1.55740000      -0.02970000
C        0.05510000       0.02890000      -0.01060000
C        0.66270000      -0.54700000      -1.29890000
C        0.90090000      -2.03100000      -1.21230000
C        0.89390000      -2.70920000      -0.06610000
C        0.66510000      -2.07080000       1.27860000
C        0.80310000      -0.52810000       1.23220000
C        2.20720000      -0.11890000       1.25590000
C        3.36250000       0.21550000       1.27600000
H        1.01440000       1.98030000      -0.06100000
H       -0.54160000       1.91910000      -0.90700000
H       -0.49600000       1.95060000       0.86160000
H       -0.97240000      -0.35160000       0.07050000
H       -0.00050000      -0.32370000      -2.14460000
H        1.60990000      -0.03400000      -1.52210000
H        1.09370000      -2.55390000      -2.14610000
H        1.06050000      -3.78370000      -0.07170000
H       -0.33920000      -2.32510000       1.64710000
H        1.36650000      -2.47960000       2.01460000
H        0.32280000      -0.11510000       2.12930000
H        4.38270000       0.50890000       1.30060000
