19
Properties=species:S:1:pos:R:3 gdb_120363=T pbc="F F F"
C        0.03200000       1.42090000       0.08660000
O        0.00670000       0.01390000       0.02840000
C        0.66090000      -0.49840000      -1.11170000
C        0.54840000      -2.02300000      -1.07650000
C       -0.83970000      -2.58000000      -1.25500000
C       -0.91550000      -3.47050000      -2.24580000
C        0.40640000      -3.68690000      -2.93270000
C        1.33170000      -2.68260000      -2.22890000
O        2.46720000      -2.42730000      -2.53500000
H        1.06190000       1.80920000       0.12230000
H       -0.47510000       1.87460000      -0.77960000
H       -0.49050000       1.71990000       0.99840000
H        0.19960000      -0.10250000      -2.03260000
H        1.72430000      -0.21320000      -1.12370000
H        0.99220000      -2.34910000      -0.12410000
H       -1.66320000      -2.26710000      -0.62500000
H       -1.81620000      -3.99670000      -2.54030000
H        0.80200000      -4.70470000      -2.81160000
H        0.39180000      -3.49520000      -4.01290000
