18
Properties=species:S:1:pos:R:3 gdb_46556=T pbc="F F F"
O       -0.04320000      -0.00820000      -0.08470000
C       -0.08280000       1.18900000      -0.04500000
N       -1.15590000       2.01710000      -0.30510000
C       -0.89310000       3.36390000       0.16090000
C        0.64920000       3.36250000       0.14070000
C        1.31620000       4.11090000      -1.04350000
C        1.60860000       5.28940000      -0.07370000
C        1.36170000       4.32000000       1.11720000
O        0.99210000       1.97830000       0.26580000
H       -2.07310000       1.60340000      -0.26350000
H       -1.31350000       4.12330000      -0.50460000
H       -1.27660000       3.53960000       1.17690000
H        2.23020000       3.59180000      -1.34150000
H        0.70600000       4.30020000      -1.92980000
H        2.59390000       5.75250000      -0.13970000
H        0.85140000       6.07550000      -0.13170000
H        0.78600000       4.68080000       1.97350000
H        2.28880000       3.86700000       1.47600000
