19
Properties=species:S:1:pos:R:3 gdb_64462=T pbc="F F F"
C        0.79050000       1.30220000       0.00360000
C       -0.06420000       0.01700000       0.00170000
O       -1.42670000       0.37120000       0.05130000
C        0.21090000      -0.85350000      -1.26610000
O        0.82990000      -2.09800000      -0.98160000
C        1.99650000      -1.93820000      -0.19720000
C        1.61270000      -1.53720000       1.24380000
C        0.28420000      -0.80750000       1.24720000
O       -0.50060000      -0.86210000       2.16830000
H        1.86300000       1.09200000      -0.05690000
H        0.51080000       1.90860000      -0.86270000
H        0.59360000       1.88520000       0.90760000
H       -1.71890000       0.13430000       0.94720000
H       -0.75250000      -1.08190000      -1.72380000
H        0.82420000      -0.28800000      -1.98530000
H        2.51790000      -2.89830000      -0.20500000
H        2.66590000      -1.19220000      -0.65440000
H        1.50320000      -2.40830000       1.89450000
H        2.37660000      -0.89170000       1.69520000
