23
Properties=species:S:1:pos:R:3 gdb_109309=T pbc="F F F"
C        0.19770000       1.74050000      -0.04710000
C       -0.00700000       0.21370000      -0.07600000
C        0.67280000      -0.44860000      -1.24270000
C        1.89890000      -0.98290000      -1.24360000
C        2.28580000      -1.56460000      -2.58220000
C        1.19050000      -1.00920000      -3.52780000
C        0.04250000      -0.60420000      -2.59540000
C       -1.33470000      -1.22990000      -2.73860000
C       -1.11980000       0.21890000      -3.09090000
H        1.26130000       1.98210000       0.03960000
H       -0.17400000       2.21370000      -0.96080000
H       -0.32600000       2.18860000       0.80350000
H        0.37760000      -0.21340000       0.85680000
H       -1.08270000      -0.00430000      -0.09140000
H        2.54350000      -1.04030000      -0.37220000
H        3.29430000      -1.27710000      -2.90050000
H        2.27740000      -2.66370000      -2.54810000
H        1.57060000      -0.11960000      -4.04350000
H        0.88280000      -1.72390000      -4.29640000
H       -1.47950000      -1.94190000      -3.54460000
H       -1.89580000      -1.45880000      -1.83810000
H       -1.54760000       0.96830000      -2.43350000
H       -1.12330000       0.49860000      -4.14000000
