16
Properties=species:S:1:pos:R:3 gdb_42699=T pbc="F F F"
O       -0.06460000      -0.02590000      -0.04550000
C       -0.02150000       1.16330000       0.04270000
C       -1.02920000       2.31500000       0.06710000
C       -0.80260000       3.00230000       1.42180000
C       -0.96780000       4.50690000       1.09240000
C        0.28840000       4.28760000       0.25760000
C        0.78110000       3.17170000       1.20910000
C        1.04150000       2.25260000      -0.00050000
N        0.00510000       3.14490000      -0.73600000
H       -2.04010000       2.22930000      -0.32620000
H       -1.23490000       2.54780000       2.31180000
H       -1.88630000       4.84000000       0.60010000
H       -0.75500000       5.13600000       1.96230000
H        0.89360000       5.08170000      -0.17580000
H        1.43110000       3.29150000       2.07390000
H        2.03870000       2.13320000      -0.41900000
