24
Properties=species:S:1:pos:R:3 gdb_87167=T pbc="F F F"
C       -0.23670000       1.44600000      -0.01740000
N       -0.00120000       0.01940000       0.14050000
C        1.30440000      -0.50530000      -0.24170000
C        0.89010000      -0.48960000       1.19780000
C        1.58990000       0.47390000       2.14030000
C        0.39730000      -1.79160000       1.79990000
C        1.39140000      -2.79920000       2.44950000
C        0.28270000      -3.15820000       3.47560000
C       -0.41770000      -1.81720000       3.12750000
H        0.65580000       2.08070000       0.09570000
H       -0.64290000       1.62160000      -1.01910000
H       -0.98540000       1.77590000       0.71050000
H        1.30190000      -1.43000000      -0.81510000
H        2.07180000       0.20790000      -0.54370000
H        2.03900000       1.31550000       1.60980000
H        0.89790000       0.87850000       2.88710000
H        2.39550000      -0.03340000       2.68030000
H       -0.18040000      -2.30490000       1.02530000
H        1.79060000      -3.59630000       1.81720000
H        2.23060000      -2.29140000       2.93500000
H       -0.30710000      -4.01840000       3.14580000
H        0.58360000      -3.32160000       4.51300000
H       -0.10870000      -1.02230000       3.81300000
H       -1.50750000      -1.80560000       3.05140000
