11
Properties=species:S:1:pos:R:3 gdb_23994=T pbc="F F F"
C        0.19690000      -1.13460000      -0.00560000
C        0.06990000       0.06230000       0.00230000
C       -0.10470000       1.45280000       0.01200000
C       -1.20360000       2.27160000       0.03230000
N       -0.80150000       3.58320000       0.03310000
C        0.49910000       3.51960000       0.01350000
O        1.00200000       2.26200000      -0.00030000
C        1.42040000       4.59790000       0.00540000
N        2.17340000       5.47590000      -0.00130000
H        0.31180000      -2.19100000      -0.01270000
H       -2.24340000       1.98860000       0.04620000
