17
Properties=species:S:1:pos:R:3 gdb_52135=T pbc="F F F"
O       -0.06950000      -0.07030000      -0.41690000
C       -0.01760000       1.13800000      -0.30660000
N        1.12790000       1.84460000      -0.16270000
C        2.41880000       1.19660000      -0.12800000
C        3.49120000       2.22530000       0.03890000
N        3.30420000       3.47750000       0.13600000
C        4.63450000       4.08780000       0.28430000
C        5.61770000       2.88740000       0.24830000
O        4.75240000       1.73630000       0.08530000
H       -0.91230000       1.79090000      -0.31260000
H        1.12660000       2.85060000      -0.07400000
H        2.47870000       0.47080000       0.69320000
H        2.60230000       0.62410000      -1.04630000
H        4.81180000       4.80000000      -0.52780000
H        4.68730000       4.64550000       1.22480000
H        6.31170000       2.91260000      -0.59570000
H        6.18600000       2.75670000       1.17270000
