20
Properties=species:S:1:pos:R:3 gdb_123131=T pbc="F F F"
O       -0.85410000       1.68330000       0.20770000
C       -0.28950000       0.38970000       0.14730000
C       -1.31540000      -0.71930000      -0.09010000
N       -2.10750000      -0.46060000      -1.28840000
H       -3.25600000       0.89820000      -1.32730000
H       -1.49560000      -0.36820000      -2.09500000
C       -3.16780000      -1.43390000      -1.57300000
C       -4.13110000      -0.87540000      -2.62880000
C       -4.87500000       0.40060000      -2.20940000
O       -4.15980000       1.27760000      -1.49180000
O       -6.01840000       0.61050000      -2.52000000
H       -1.46820000       1.71600000       0.94880000
H        0.42370000       0.41970000      -0.68570000
H        0.28710000       0.14500000       1.05290000
H       -0.78840000      -1.68920000      -0.12300000
H       -2.00700000      -0.76810000       0.76190000
H       -2.77260000      -2.40880000      -1.89840000
H       -3.71000000      -1.61040000      -0.63660000
H       -3.57410000      -0.65010000      -3.54890000
H       -4.88650000      -1.61780000      -2.89240000
