18
Properties=species:S:1:pos:R:3 gdb_92986=T pbc="F F F"
C       -0.02440000       1.56560000       0.07990000
C       -0.03210000       0.03620000       0.00750000
C        0.87840000      -0.52800000      -1.12890000
N        2.06850000      -1.11330000      -0.48150000
C        1.81680000      -1.11960000       0.76680000
N        0.59020000      -0.62350000       1.17340000
C        0.24600000      -0.35590000       2.54400000
C        0.83550000       0.87320000       3.12310000
N        1.31450000       1.82590000       3.56830000
H        0.99600000       1.94940000       0.17400000
H       -0.46170000       1.97250000      -0.83760000
H       -0.61030000       1.94530000       0.92240000
H       -1.06500000      -0.31660000      -0.09450000
H        0.36840000      -1.30840000      -1.70600000
H        1.17570000       0.25490000      -1.83400000
H        2.49600000      -1.51470000       1.51830000
H       -0.84340000      -0.29170000       2.64130000
H        0.56320000      -1.19950000       3.16800000
