23
Properties=species:S:1:pos:R:3 gdb_95285=T pbc="F F F"
C       -0.48720000       1.45080000       0.05060000
C        0.14990000       0.06670000      -0.06190000
C        1.17640000      -0.09700000      -1.19850000
C        1.89100000      -1.42140000      -0.85930000
C        2.01620000      -1.40010000       0.67070000
C        3.09140000      -0.43570000       1.25220000
C        1.97570000       0.48340000       1.82250000
C        0.89040000      -0.44830000       1.19530000
O        0.02600000      -1.06630000       2.12910000
H        0.26490000       2.23540000       0.18500000
H       -1.05810000       1.69430000      -0.85140000
H       -1.18300000       1.50860000       0.89680000
H       -0.64900000      -0.66960000      -0.22720000
H        0.71080000      -0.10090000      -2.18880000
H        1.88820000       0.73920000      -1.18540000
H        1.26690000      -2.26650000      -1.17280000
H        2.85810000      -1.52840000      -1.36150000
H        2.01320000      -2.39220000       1.12480000
H        3.74530000      -0.88150000       2.00460000
H        3.72210000       0.03480000       0.49220000
H        1.91860000       0.48130000       2.91340000
H        1.98980000       1.51980000       1.47540000
H       -0.58220000      -0.39640000       2.46100000
