14
Properties=species:S:1:pos:R:3 gdb_66400=T pbc="F F F"
C       -0.05840000       1.59710000      -0.01260000
C        0.04920000       0.10280000      -0.02970000
C        0.66760000      -0.91690000      -0.94920000
O        1.12810000      -1.72650000       0.15350000
C        0.65110000      -0.77470000       1.05610000
O        0.80430000      -0.74000000       2.22830000
C       -0.82860000      -0.81760000      -0.91790000
C       -1.67290000      -1.86390000      -0.40340000
N       -2.36840000      -2.69490000      -0.00140000
H        0.88510000       2.04980000       0.30590000
H       -0.30850000       1.98570000      -1.00370000
H       -0.83900000       1.91710000       0.68410000
H        1.30520000      -0.83610000      -1.81820000
H       -1.26140000      -0.27220000      -1.75370000
