16
Properties=species:S:1:pos:R:3 gdb_38704=T pbc="F F F"
C       -0.01290000       1.47550000       0.05710000
C        1.35070000       0.79260000      -0.00910000
O        2.16220000       0.27880000       1.04920000
C        1.63170000      -1.01760000       1.22020000
C        0.13820000      -0.76620000       1.29680000
C        0.09710000      -0.02070000      -0.04920000
N       -0.00520000      -0.96960000      -1.14240000
C        0.91880000      -1.83230000      -0.96460000
O        1.85440000      -1.85860000       0.03470000
H       -0.41670000       1.87050000       0.98350000
H       -0.23870000       2.06940000      -0.82410000
H        1.90860000       0.94720000      -0.92550000
H        2.15720000      -1.51380000       2.03600000
H       -0.48720000      -1.65980000       1.29610000
H       -0.09500000      -0.14150000       2.15980000
H        1.06400000      -2.66820000      -1.64340000
