20
Properties=species:S:1:pos:R:3 gdb_92245=T pbc="F F F"
C        0.15760000       1.60440000      -0.19240000
C        0.03240000       0.10340000       0.02180000
C        0.90300000      -0.87060000      -0.82650000
N        1.25200000      -1.67400000       0.39370000
C        2.63470000      -1.41130000       0.92180000
C        2.10170000      -0.29590000       1.85010000
O        1.62810000      -0.77860000       3.12570000
C        0.25770000      -0.87730000       2.65310000
C        0.69940000      -0.54450000       1.23410000
H        1.20320000       1.92670000      -0.14300000
H       -0.23560000       1.89450000      -1.17250000
H       -0.40050000       2.16260000       0.56710000
H       -1.02110000      -0.19580000      -0.01990000
H        0.38740000      -1.45430000      -1.59400000
H        1.77060000      -0.37790000      -1.28580000
H        3.06230000      -2.26850000       1.44940000
H        3.33740000      -1.07200000       0.15130000
H        2.64280000       0.65060000       1.93900000
H       -0.16990000      -1.87550000       2.79870000
H       -0.38170000      -0.12260000       3.13180000
