23
Properties=species:S:1:pos:R:3 gdb_103456=T pbc="F F F"
C       -0.07740000       1.55800000       0.11430000
C        0.00560000       0.04070000       0.07780000
C       -1.23390000      -0.58180000      -0.53800000
O       -1.35940000      -0.09470000      -1.87140000
C        1.27060000      -0.72640000      -0.25620000
C        2.52280000      -0.01990000       0.26630000
C        1.91280000      -0.04670000       1.70290000
C        0.67200000      -0.78580000       1.16240000
C        0.02240000      -1.88960000       1.95580000
H        0.84930000       2.02630000       0.44890000
H       -0.31220000       1.94210000      -0.88160000
H       -0.87530000       1.88250000       0.79390000
H       -1.15410000      -1.67800000      -0.53930000
H       -2.12180000      -0.31490000       0.05880000
H       -2.20460000      -0.39440000      -2.21830000
H        1.25870000      -1.47680000      -1.03950000
H        3.41850000      -0.64090000       0.19210000
H        2.74900000       0.95970000      -0.16660000
H        2.49250000      -0.67850000       2.38130000
H        1.73980000       0.91390000       2.19820000
H       -0.47410000      -1.48490000       2.84730000
H       -0.72840000      -2.44500000       1.38830000
H        0.77180000      -2.61090000       2.30260000
