14
Properties=species:S:1:pos:R:3 gdb_11683=T pbc="F F F"
O        0.03760000       0.04840000      -0.13150000
C        0.02830000       1.23490000       0.02720000
C       -1.12100000       2.26720000       0.16950000
C       -0.05640000       3.37450000      -0.00120000
C        0.94190000       3.25190000       1.10630000
C        1.08590000       2.29380000      -0.06200000
C       -0.20110000       4.52770000      -0.81940000
C       -0.34600000       5.50140000      -1.51130000
H       -1.80490000       2.18420000      -0.67890000
H       -1.69400000       2.28150000       1.10070000
H        1.70660000       4.01990000       1.14130000
H        0.62300000       2.88670000       2.07880000
H        1.98360000       2.27160000      -0.66690000
H       -0.46960000       6.36110000      -2.12210000
