18
Properties=species:S:1:pos:R:3 gdb_89929=T pbc="F F F"
C       -0.60520000       1.35050000      -0.06540000
C        0.07840000      -0.00840000      -0.01770000
C        1.40340000      -0.19650000      -0.82960000
C        2.12560000      -0.64230000       0.46710000
O        2.75300000       0.45550000       1.15780000
C        1.61260000       0.61370000       2.04390000
C        0.80730000      -0.45460000       1.28990000
C        2.93120000      -1.85070000       0.44970000
N        3.54530000      -2.83010000       0.42460000
H        0.09060000       2.16610000       0.15590000
H       -1.01630000       1.53530000      -1.06340000
H       -1.43240000       1.40680000       0.65060000
H       -0.64190000      -0.78200000      -0.29830000
H        1.35370000      -0.96190000      -1.60650000
H        1.84610000       0.71270000      -1.24250000
H        1.87350000       0.33270000       3.07080000
H        1.22700000       1.63790000       2.03820000
H        0.34520000      -1.24490000       1.87840000
