21
Properties=species:S:1:pos:R:3 gdb_111098=T pbc="F F F"
C       -0.17880000       1.51710000       0.01590000
C        0.06980000       0.01080000       0.00510000
C        1.05960000      -0.52130000      -1.08970000
C        2.02870000      -1.25940000      -0.14520000
O        1.10370000      -1.93350000       0.77280000
C        0.82660000      -0.57020000       1.22540000
C        2.31340000      -0.22200000       0.96810000
C        3.28230000      -0.68180000       2.03740000
O        4.58530000      -0.66370000       1.46320000
H        0.75350000       2.08680000       0.08820000
H       -0.68570000       1.83430000      -0.90130000
H       -0.81390000       1.80800000       0.86030000
H       -0.88840000      -0.51180000      -0.07100000
H        0.58360000      -1.20350000      -1.79700000
H        1.54840000       0.28090000      -1.65120000
H        2.80170000      -1.90590000      -0.55870000
H        0.35670000      -0.51280000       2.20920000
H        2.55490000       0.79560000       0.64780000
H        3.22440000      -0.00430000       2.90510000
H        3.00320000      -1.68920000       2.37340000
H        5.20300000      -1.01240000       2.11230000
