22
Properties=species:S:1:pos:R:3 gdb_121021=T pbc="F F F"
C       -0.01530000       1.58260000       0.27330000
C       -0.14170000       0.08040000       0.00850000
C        0.82130000      -0.41540000      -1.07750000
C        0.70410000      -1.90960000      -1.34480000
O       -0.64510000      -2.20810000      -1.81890000
C       -0.48280000      -3.01350000      -2.89180000
N        0.67790000      -3.29430000      -3.31170000
C        1.61880000      -2.54970000      -2.44450000
C        2.45750000      -1.59250000      -3.29430000
H        0.99700000       1.84610000       0.60020000
H       -0.23140000       2.16370000      -0.63010000
H       -0.71160000       1.90860000       1.05200000
H        0.04630000      -0.47470000       0.93730000
H       -1.16730000      -0.16140000      -0.29030000
H        0.64410000       0.13580000      -2.00860000
H        1.85510000      -0.20010000      -0.77710000
H        0.81850000      -2.45550000      -0.40000000
H       -1.41090000      -3.36640000      -3.32930000
H        2.29670000      -3.27190000      -1.97640000
H        1.82980000      -0.86330000      -3.81450000
H        3.18930000      -1.05190000      -2.68650000
H        2.99690000      -2.16680000      -4.05180000
