13
Properties=species:S:1:pos:R:3 gdb_31222=T pbc="F F F"
O        0.30330000       1.04840000      -0.65570000
C       -0.09870000       0.17470000       0.36970000
C       -1.43420000      -0.45080000       0.10640000
C       -2.18950000      -0.65670000      -1.01240000
N       -3.36710000      -1.32200000      -0.66210000
C       -3.26370000      -1.47960000       0.61020000
O       -2.11920000      -0.97910000       1.15330000
C       -1.86260000      -0.30530000      -2.34730000
N       -1.55400000      -0.03060000      -3.42890000
H        0.47490000       0.54620000      -1.46000000
H        0.64300000      -0.61750000       0.56360000
H       -0.16640000       0.76980000       1.28710000
H       -3.95770000      -1.94710000       1.29040000
