24
Properties=species:S:1:pos:R:3 gdb_123166=T pbc="F F F"
C       -0.19340000       1.51380000      -0.21490000
C       -0.07200000       0.01270000      -0.01260000
O       -1.36550000      -0.55190000      -0.03990000
C       -1.37000000      -1.95070000       0.13980000
C       -2.81020000      -2.44230000       0.08820000
C       -2.91880000      -3.95730000       0.25560000
N       -4.31490000      -4.38120000       0.23950000
C       -4.87930000      -4.69130000      -1.06980000
C       -4.56260000      -5.77670000      -0.10070000
H        0.79480000       1.98310000      -0.19960000
H       -0.66830000       1.73380000      -1.17530000
H       -0.80240000       1.95900000       0.57700000
H        0.55620000      -0.43450000      -0.80260000
H        0.42110000      -0.20900000       0.94980000
H       -0.76600000      -2.43960000      -0.64560000
H       -0.90630000      -2.21520000       1.10690000
H       -3.39080000      -1.94790000       0.87360000
H       -3.25070000      -2.14220000      -0.86960000
H       -2.32710000      -4.46620000      -0.52980000
H       -2.49180000      -4.26090000       1.21990000
H       -5.90540000      -4.37470000      -1.23310000
H       -4.23010000      -4.60010000      -1.94000000
H       -3.70400000      -6.40750000      -0.32760000
H       -5.35270000      -6.26850000       0.45960000
