19
Properties=species:S:1:pos:R:3 gdb_111781=T pbc="F F F"
O        0.26740000       0.56920000       1.05220000
C       -0.09470000       0.39620000      -0.31130000
C       -1.42850000      -0.32520000      -0.32770000
C       -2.01080000      -0.91660000      -1.66020000
C       -0.92040000      -1.91860000      -2.11110000
C       -0.56080000      -2.56940000      -0.72620000
C       -1.53930000      -1.80480000       0.19390000
C       -2.80200000      -1.81780000      -0.68770000
O       -3.92510000      -2.21400000      -0.59610000
H        1.09670000       1.05550000       1.08470000
H       -0.20770000       1.36580000      -0.82240000
H        0.67570000      -0.16800000      -0.85470000
H       -2.17110000       0.30290000       0.17300000
H       -2.49830000      -0.30150000      -2.41410000
H       -1.31520000      -2.64590000      -2.82520000
H       -0.06660000      -1.42530000      -2.58160000
H       -0.74400000      -3.64650000      -0.70990000
H        0.48090000      -2.40550000      -0.44040000
H       -1.55920000      -2.04830000       1.25310000
