18
Properties=species:S:1:pos:R:3 gdb_78906=T pbc="F F F"
O       -0.08610000       1.45650000       0.01640000
C        0.01080000       0.04300000      -0.05110000
C       -1.36670000      -0.57140000      -0.15540000
C       -1.96290000      -0.83890000      -1.49060000
C       -0.92180000      -0.90100000      -2.62430000
C        0.17990000       0.17760000      -2.58510000
C        0.72200000      -0.51570000      -1.29990000
C       -0.12180000      -1.79540000      -1.65020000
N       -1.29810000      -1.94590000      -0.68560000
H        0.79600000       1.80970000       0.16900000
H        0.49230000      -0.34690000       0.85960000
H       -2.04980000      -0.44270000       0.67870000
H       -3.03890000      -0.82280000      -1.63430000
H       -1.31390000      -1.26380000      -3.57400000
H        0.86870000       0.06980000      -3.42740000
H       -0.11710000       1.22310000      -2.48220000
H        1.80310000      -0.60780000      -1.18330000
H        0.36950000      -2.72880000      -1.91540000
