17
Properties=species:S:1:pos:R:3 gdb_36416=T pbc="F F F"
C       -0.04150000      -1.18970000      -0.00820000
C       -0.03210000       0.00680000      -0.11290000
C       -0.01400000       1.45830000      -0.22440000
C        1.37500000       2.05430000      -0.01460000
O        2.23280000       1.71680000      -1.09340000
C        3.13160000       2.79390000      -1.22450000
C        2.62420000       3.97540000      -2.02140000
C        2.50240000       3.94780000      -0.51440000
O        1.27580000       3.47260000      -0.00720000
H       -0.05090000      -2.24810000       0.07480000
H       -0.36760000       1.78000000      -1.21000000
H       -0.67960000       1.90610000       0.52270000
H        1.81560000       1.70520000       0.93450000
H        4.18240000       2.53090000      -1.17780000
H        3.36170000       4.64480000      -2.45310000
H        1.71700000       3.83340000      -2.59690000
H        3.02740000       4.64790000       0.12560000
