19
Properties=species:S:1:pos:R:3 gdb_43366=T pbc="F F F"
O       -0.34080000       0.03690000       0.01130000
C       -0.21720000       1.24240000       0.01480000
C       -1.29260000       2.25730000       0.03390000
C       -0.75880000       3.48450000       0.03190000
C        0.74950000       3.47600000       0.01150000
C        1.12580000       1.98160000      -0.00020000
C        2.16700000       1.50380000       1.06310000
C        3.26350000       1.49180000      -0.03170000
C        2.13750000       1.51340000      -1.09590000
H       -2.34350000       1.99850000       0.04700000
H       -1.32300000       4.41150000       0.04360000
H        1.12750000       4.01410000      -0.86760000
H        1.15110000       4.00630000       0.88490000
H        2.31370000       2.14880000       1.93340000
H        1.91590000       0.49460000       1.40020000
H        3.85190000       2.41390000      -0.03560000
H        3.95090000       0.64320000      -0.04490000
H        1.87710000       0.50720000      -1.43510000
H        2.26030000       2.16630000      -1.96400000
