14
Properties=species:S:1:pos:R:3 gdb_132173=T pbc="F F F"
O       -0.08450000       1.34090000       0.01100000
C       -0.00610000      -0.01230000       0.00300000
C        1.16570000      -0.68800000      -0.00780000
N        1.19590000      -2.07880000      -0.01570000
C        0.02890000      -2.76760000      -0.01260000
F        0.19450000      -4.08600000      -0.02090000
C       -1.17860000      -2.16970000      -0.00200000
C       -1.30420000      -0.71660000       0.00690000
N       -2.39240000      -0.02710000       0.01730000
H        0.80340000       1.71470000       0.00780000
H        2.13240000      -0.20090000      -0.01080000
H        2.06550000      -2.58320000      -0.02350000
H       -2.06820000      -2.78620000      -0.00020000
H       -3.19860000      -0.65580000       0.01860000
