16
Properties=species:S:1:pos:R:3 gdb_108744=T pbc="F F F"
C        0.12580000       1.38500000       0.00650000
N       -0.06500000      -0.04610000       0.00360000
C       -1.26930000      -0.63300000       0.01040000
C       -2.53830000      -0.14370000       0.02150000
C       -3.46980000      -1.27370000       0.02440000
O       -4.67820000      -1.30410000       0.03330000
N       -2.65820000      -2.44580000       0.01460000
C       -1.32060000      -2.13330000       0.00560000
N       -0.26090000      -2.84050000      -0.00470000
H        1.19420000       1.60510000      -0.00200000
H       -0.33210000       1.84900000      -0.87630000
H       -0.31680000       1.84350000       0.90000000
H        0.72310000      -0.67660000      -0.00460000
H       -2.86970000       0.88180000       0.02760000
H       -3.04870000      -3.37290000       0.01420000
H       -0.45700000      -3.84180000      -0.00660000
