18
Properties=species:S:1:pos:R:3 gdb_41419=T pbc="F F F"
C        0.03140000       1.47110000      -0.03060000
O        1.49510000       1.50380000      -0.04040000
C        1.51930000       0.09680000      -0.22820000
C        2.45380000      -0.90200000       0.41430000
C        1.73130000      -2.21520000      -0.03610000
C        0.91480000      -1.82840000      -1.28730000
C        1.19130000      -0.43710000      -1.65450000
N       -0.21140000      -0.81400000      -1.22820000
C        0.01910000      -0.07600000       0.04480000
H       -0.36340000       1.99520000       0.84410000
H       -0.39620000       1.89170000      -0.94740000
H        3.47040000      -0.84210000       0.01040000
H        2.50380000      -0.79740000       1.50150000
H        2.44510000      -2.99910000      -0.30260000
H        1.09650000      -2.61780000       0.75940000
H        0.72130000      -2.58190000      -2.04130000
H        1.43990000      -0.01480000      -2.62000000
H       -0.40880000      -0.51870000       0.94710000
