16
Properties=species:S:1:pos:R:3 gdb_28501=T pbc="F F F"
C       -0.07210000       1.51390000      -0.03860000
C       -0.00250000       0.00870000       0.01390000
N        0.04280000      -0.62850000      -1.16320000
C        0.10550000      -1.96160000      -1.15110000
C        0.12630000      -2.72230000       0.00730000
O        0.19010000      -4.09180000       0.05890000
C        0.07900000      -2.05950000       1.23960000
O        0.09630000      -2.74900000       2.40250000
C        0.01370000      -0.67280000       1.23370000
H        0.80010000       1.91900000      -0.56180000
H       -0.95690000       1.83620000      -0.59680000
H       -0.11240000       1.95290000       0.96120000
H        0.14150000      -2.46000000      -2.12090000
H        0.21840000      -4.44980000      -0.83400000
H        0.14340000      -3.68960000       2.18610000
H       -0.02360000      -0.14220000       2.17800000
