15
Properties=species:S:1:pos:R:3 gdb_125114=T pbc="F F F"
C        0.04280000       1.55180000       0.01140000
C        0.04420000       0.05520000      -0.00680000
C        0.03340000      -0.78090000      -1.09210000
O        0.01350000      -0.56450000      -2.42230000
N        0.04200000      -2.08210000      -0.63550000
C        0.03500000      -3.24040000      -1.42480000
O        0.04230000      -4.35710000      -0.99200000
N        0.05860000      -2.12170000       0.73700000
C        0.06050000      -0.85630000       1.09370000
H        0.99780000       1.96220000       0.35860000
H       -0.14360000       1.97090000      -0.98470000
H       -0.73990000       1.94460000       0.66860000
H        0.03020000       0.38520000      -2.58380000
H        0.02230000      -2.98020000      -2.49570000
H        0.07120000      -0.60300000       2.14570000
