17
Properties=species:S:1:pos:R:3 gdb_36212=T pbc="F F F"
C       -0.14550000      -1.12620000       0.48660000
C       -0.06630000       0.02500000       0.15090000
C        0.05160000       1.42700000      -0.24880000
C        1.46900000       1.93940000      -0.20560000
C        2.11680000       2.56610000      -1.19390000
C        3.45210000       3.03880000      -0.72590000
O        3.37130000       3.98390000       0.36850000
C        3.58390000       2.60540000       0.67630000
C        2.32020000       1.84260000       1.05100000
H       -0.22600000      -2.14400000       0.77820000
H       -0.35650000       1.56190000      -1.25730000
H       -0.57590000       2.03690000       0.41820000
H        1.72550000       2.75140000      -2.18710000
H        4.28930000       3.18760000      -1.40070000
H        4.53580000       2.37170000       1.14510000
H        1.82000000       2.28450000       1.92160000
H        2.53770000       0.79800000       1.30430000
