17
Properties=species:S:1:pos:R:3 gdb_33835=T pbc="F F F"
N        0.05240000      -1.11720000      -0.02040000
C        0.04430000       0.03910000       0.02550000
C        0.03240000       1.46850000       0.06170000
C        0.28390000       2.32330000      -1.16380000
C        1.19840000       2.47130000       0.01880000
C        0.48580000       3.19730000       1.13640000
C        1.08870000       3.78480000       2.36920000
C        0.34150000       4.66660000       1.37980000
N       -0.60530000       2.19730000       1.16680000
H        0.70460000       1.79840000      -2.01520000
H       -0.43110000       3.10480000      -1.40760000
H        2.25610000       2.24860000      -0.02320000
H        0.60430000       3.55820000       3.31240000
H        2.16900000       3.87350000       2.42000000
H        0.90890000       5.35430000       0.76130000
H       -0.63430000       5.03600000       1.67940000
H       -1.52090000       2.56650000       0.91660000
