19
Properties=species:S:1:pos:R:3 gdb_67047=T pbc="F F F"
C        0.06430000       1.51250000       0.05740000
C       -0.01330000       0.01500000      -0.08970000
C        0.79410000      -0.65280000      -1.20330000
C        0.35840000      -2.14340000      -1.12810000
C       -0.94260000      -2.10340000      -0.32500000
C       -0.86090000      -1.45930000       1.06630000
O        0.32910000      -0.68050000       1.17050000
C       -1.40420000      -0.69360000      -0.09770000
O       -2.62670000      -0.18590000      -0.47490000
H        1.09290000       1.82290000       0.26570000
H       -0.26490000       2.00640000      -0.86230000
H       -0.56360000       1.85740000       0.88480000
H        0.52160000      -0.20820000      -2.16810000
H        1.86990000      -0.51640000      -1.05880000
H        0.19900000      -2.57230000      -2.12130000
H        1.11560000      -2.75170000      -0.62530000
H       -1.69810000      -2.87370000      -0.43610000
H       -1.28430000      -1.88190000       1.97000000
H       -2.88240000       0.49460000       0.15810000
