14
Properties=species:S:1:pos:R:3 gdb_132982=T pbc="F F F"
C       -0.03130000       1.45120000       0.00070000
N       -0.04500000      -0.00850000       0.00690000
C       -1.18270000      -0.71640000      -0.15250000
C       -1.17430000      -2.07910000      -0.14360000
C        0.10360000      -2.65840000       0.04300000
F        0.15500000      -3.98350000       0.05780000
N        1.21650000      -2.03060000       0.19920000
C        1.22390000      -0.65190000       0.19260000
O        2.20800000       0.03990000       0.32990000
H        0.61820000       1.81280000      -0.79920000
H       -1.04800000       1.81850000      -0.14670000
H        0.36860000       1.82250000       0.94660000
H       -2.09180000      -0.14120000      -0.28610000
H       -2.06750000      -2.67130000      -0.26850000
