13
Properties=species:S:1:pos:R:3 gdb_2010=T pbc="F F F"
O       -0.30080000       0.35110000      -0.56120000
C        0.12440000       1.15070000       0.23230000
C        1.38200000       1.93080000       0.01860000
C        2.86120000       1.45260000       0.14360000
C        2.81860000       2.99120000      -0.00470000
C        1.79910000       2.85330000      -1.15980000
O        1.68980000       3.02940000       0.96090000
H       -0.38360000       1.36700000       1.19790000
H        3.14010000       1.08730000       1.13210000
H        3.27210000       0.85840000      -0.67480000
H        3.61370000       3.72240000       0.13430000
H        2.12270000       2.37790000      -2.08730000
H        1.15040000       3.71540000      -1.31530000
