19
Properties=species:S:1:pos:R:3 gdb_74932=T pbc="F F F"
C        0.00890000       1.47920000       0.05900000
C        0.02960000      -0.01560000      -0.01260000
C       -0.07530000      -0.77070000      -1.11320000
C        0.05520000      -2.25160000      -0.89230000
C        1.46880000      -2.48190000      -0.25590000
C        0.81620000      -2.22420000       1.10480000
C       -0.55890000      -2.63850000       0.55420000
O       -1.25100000      -1.59150000       1.21470000
C        0.02830000      -0.85310000       1.24490000
H        0.91690000       1.87130000       0.53550000
H       -0.06720000       1.92480000      -0.93690000
H       -0.83830000       1.83720000       0.65800000
H       -0.20210000      -0.36060000      -2.11040000
H       -0.22840000      -2.86290000      -1.74880000
H        1.78020000      -3.52960000      -0.32210000
H        2.27700000      -1.83320000      -0.60260000
H        1.24430000      -2.60060000       2.03450000
H       -1.04290000      -3.61320000       0.63770000
H        0.14310000      -0.29510000       2.17620000
