15
Properties=species:S:1:pos:R:3 gdb_131730=T pbc="F F F"
O        0.01670000       1.44550000       0.01140000
C        0.00160000       0.04060000       0.00110000
C       -1.41990000      -0.46050000       0.01230000
N       -2.41160000       0.38000000       0.02170000
N       -3.63060000      -0.14720000       0.03090000
C       -3.96340000      -1.50940000       0.03130000
N       -5.19570000      -1.83310000       0.04090000
N       -2.87320000      -2.39090000       0.02070000
C       -1.68870000      -1.87750000       0.01200000
H        0.93480000       1.73130000      -0.00050000
H        0.50850000      -0.37070000      -0.89040000
H        0.52680000      -0.38410000       0.87550000
H       -4.39460000       0.51370000       0.03850000
H       -5.26920000      -2.84880000       0.03970000
H       -0.84660000      -2.57300000       0.00400000
