16
Properties=species:S:1:pos:R:3 gdb_38015=T pbc="F F F"
C       -0.05930000       1.54050000      -0.01550000
C        1.48090000       1.55310000       0.01370000
N        2.11930000       1.39070000       1.31420000
C        1.64960000       0.34850000       1.87550000
N        2.61650000      -0.78050000       1.84880000
C        1.70590000      -1.09250000       0.63730000
C        1.39020000       0.01550000      -0.48550000
N       -0.05990000       0.04250000      -0.01490000
C        0.45460000      -0.48080000       1.26900000
H       -0.57050000       2.00880000       0.82910000
H       -0.48570000       1.90600000      -0.95400000
H        2.01470000       2.29280000      -0.58490000
H        2.35480000      -1.51710000       2.51500000
H        1.76400000      -2.12400000       0.28650000
H        1.57520000      -0.20840000      -1.53620000
H       -0.22120000      -1.00140000       1.94840000
