19
Properties=species:S:1:pos:R:3 gdb_77673=T pbc="F F F"
C       -0.10010000       1.52650000      -0.06470000
C        0.01310000       0.03360000       0.04320000
O        0.32790000      -0.64920000      -1.16040000
C        1.45910000      -1.44230000      -0.85580000
O        1.33880000      -1.83000000       0.49800000
C        0.68190000      -0.74960000       1.14460000
C        1.37770000      -0.20250000       2.35720000
C       -0.82580000      -0.80880000       1.00390000
O       -1.56100000      -0.17570000       2.00800000
H        0.85560000       1.97960000      -0.34640000
H       -0.83820000       1.79630000      -0.82790000
H       -0.42100000       1.95350000       0.88840000
H        1.45590000      -2.33390000      -1.48880000
H        2.38680000      -0.86370000      -1.01060000
H        2.34710000       0.23260000       2.09450000
H        0.76160000       0.55930000       2.83860000
H        1.54870000      -1.00520000       3.08150000
H       -1.23480000      -1.73560000       0.60240000
H       -2.36090000       0.18620000       1.61150000
