21
Properties=species:S:1:pos:R:3 gdb_113555=T pbc="F F F"
C       -0.09690000       1.04610000       0.58670000
O       -0.20620000       0.00470000      -0.36100000
C       -1.39410000      -0.71290000      -0.24120000
C       -1.46040000      -2.03850000      -0.93220000
C       -1.42810000      -1.98540000       0.57160000
C       -0.33150000      -2.45580000       1.53150000
C       -1.38630000      -2.41950000       2.67790000
C       -2.51100000      -2.33820000       1.60320000
O       -3.59910000      -1.46770000       1.79410000
H        0.86130000       1.54180000       0.41430000
H       -0.90420000       1.78540000       0.46830000
H       -0.12270000       0.66860000       1.61970000
H       -2.29620000      -0.09700000      -0.24480000
H       -2.38560000      -2.30980000      -1.43130000
H       -0.55440000      -2.36850000      -1.43110000
H        0.01290000      -3.47060000       1.31110000
H        0.54320000      -1.80960000       1.63190000
H       -1.41600000      -3.26000000       3.37430000
H       -1.33190000      -1.49010000       3.25490000
H       -2.95560000      -3.31950000       1.40620000
H       -3.24240000      -0.59600000       1.99710000
