18
Properties=species:S:1:pos:R:3 gdb_46717=T pbc="F F F"
O        0.03950000      -0.08710000       0.01360000
C        0.01010000       1.11400000       0.15760000
C       -1.30070000       1.86580000       0.35700000
N       -1.09510000       3.17680000       0.97300000
C        0.20490000       3.75830000       0.76070000
C        1.08130000       3.41610000      -0.50490000
C        2.31390000       3.82850000       0.33830000
C        1.43910000       2.98210000       1.29850000
C        1.23560000       1.97660000       0.10500000
H       -1.74590000       1.93670000      -0.65100000
H       -1.97410000       1.24400000       0.95550000
H       -1.82490000       3.82250000       0.70180000
H        0.17320000       4.81740000       1.02990000
H        0.88290000       3.65120000      -1.55210000
H        3.26780000       3.38620000       0.04350000
H        2.41930000       4.89120000       0.57570000
H        1.64590000       2.70790000       2.33350000
H        2.11210000       1.39860000      -0.19660000
