18
Properties=species:S:1:pos:R:3 gdb_119214=T pbc="F F F"
C       -0.95130000       1.38000000       0.51420000
O       -1.17730000      -0.01400000       0.61690000
C       -0.64950000      -0.74100000      -0.47980000
C       -0.90910000      -2.23040000      -0.27590000
C       -0.99820000      -2.79320000       1.14870000
C       -2.24510000      -2.69940000       0.32470000
O       -3.26710000      -1.80670000       0.58270000
C       -0.31290000      -3.04890000      -1.29410000
N        0.16230000      -3.70350000      -2.12240000
H       -1.37980000       1.84280000       1.40510000
H        0.12400000       1.60210000       0.47300000
H       -1.43230000       1.80060000      -0.38010000
H       -1.11830000      -0.40790000      -1.41870000
H        0.43260000      -0.55830000      -0.56370000
H       -0.56060000      -3.76720000       1.33460000
H       -0.86290000      -2.06090000       1.93620000
H       -2.64110000      -3.62480000      -0.07960000
H       -2.86000000      -0.96560000       0.83820000
