22
Properties=species:S:1:pos:R:3 gdb_40646=T pbc="F F F"
C        0.54430000       1.69890000       0.12740000
C        0.97600000       0.40440000      -0.46820000
N       -0.34110000       0.53890000       0.14610000
C       -0.52050000      -0.10620000       1.41850000
C       -1.82590000      -0.01180000       2.17020000
C       -3.07850000       0.45480000       1.43940000
C       -3.17380000      -0.40850000       0.15670000
C       -2.36350000      -1.69550000       0.45090000
C       -1.38610000      -1.33430000       1.56220000
H        1.01090000       1.99620000       1.06530000
H        0.23300000       2.52400000      -0.50700000
H        0.98550000       0.26640000      -1.54570000
H        1.73130000      -0.16500000       0.07110000
H        0.36650000      -0.10650000       2.06150000
H       -1.76840000       0.16420000       3.23960000
H       -3.94200000       0.28010000       2.09230000
H       -3.06470000       1.52520000       1.20820000
H       -4.21120000      -0.63030000      -0.11110000
H       -2.71800000       0.12600000      -0.67630000
H       -3.01970000      -2.49420000       0.81710000
H       -1.86720000      -2.07700000      -0.44760000
H       -1.00230000      -2.13940000       2.18060000
