17
Properties=species:S:1:pos:R:3 gdb_62100=T pbc="F F F"
N       -1.21670000       1.00720000      -0.12510000
C       -0.46980000      -0.11620000      -0.10240000
O        0.67510000      -0.19180000      -0.52380000
C       -1.13610000      -1.38770000       0.46560000
O       -0.19150000      -2.41730000       0.47540000
C       -1.67020000      -1.20210000       1.89540000
O       -2.76770000      -0.28620000       1.92250000
C       -4.01910000      -0.79940000       1.88770000
N       -4.99470000      -0.03840000       1.65070000
H       -0.78300000       1.85980000      -0.44130000
H       -2.09140000       1.05110000       0.37610000
H       -1.99040000      -1.63930000      -0.18620000
H        0.59490000      -2.02200000       0.05430000
H       -1.96900000      -2.18070000       2.28770000
H       -0.89450000      -0.79120000       2.54610000
H       -4.05150000      -1.87640000       2.09940000
H       -5.86790000      -0.55900000       1.69610000
