22
Properties=species:S:1:pos:R:3 gdb_36842=T pbc="F F F"
C       -0.03090000       1.53480000      -0.19840000
N       -0.12110000       0.07800000      -0.24340000
C       -0.30850000      -0.60010000       1.03530000
C       -1.42660000      -0.49640000       0.05780000
C        1.39730000       1.99220000      -0.05030000
C        2.59320000       1.68900000      -1.00460000
C        3.17590000       2.58680000       0.12300000
C        1.90150000       3.46770000      -0.01490000
C        2.37920000       1.71570000       1.13400000
H       -0.43930000       1.92390000      -1.14020000
H       -0.64220000       1.96390000       0.61890000
H        0.23180000      -1.53390000       1.16230000
H       -0.37680000       0.01220000       1.93350000
H       -2.23950000       0.18510000       0.30540000
H       -1.71810000      -1.35240000      -0.54430000
H        2.93470000       0.65170000      -1.03970000
H        2.54090000       2.12850000      -2.00520000
H        4.20490000       2.93290000       0.22390000
H        1.79750000       4.04210000      -0.94060000
H        1.61670000       4.06280000       0.85830000
H        2.13130000       2.17950000       2.09410000
H        2.71340000       0.68260000       1.26150000
