19
Properties=species:S:1:pos:R:3 gdb_41636=T pbc="F F F"
C       -0.00400000       1.41860000      -0.45670000
O        1.12710000       1.75960000       0.36540000
C        1.37190000       0.37170000       0.68110000
C        1.27760000       0.03680000       2.17130000
C       -0.18010000      -0.33210000       2.43420000
O       -1.05380000       0.78860000       2.71690000
C       -1.95690000       0.38040000       1.67040000
C       -0.90660000      -0.58110000       1.08090000
C        0.04790000      -0.06300000      -0.01910000
H       -0.89150000       2.00360000      -0.19590000
H        0.21060000       1.56520000      -1.52380000
H        2.31070000       0.03070000       0.22780000
H        1.92110000      -0.81950000       2.40500000
H        1.59810000       0.88080000       2.78870000
H       -0.29420000      -1.11040000       3.19970000
H       -2.83430000      -0.14350000       2.07500000
H       -2.30080000       1.22400000       1.06410000
H       -1.25580000      -1.59290000       0.86990000
H        0.13430000      -0.77340000      -0.84180000
