16
Properties=species:S:1:pos:R:3 gdb_42599=T pbc="F F F"
O        0.03040000       0.01080000      -0.03870000
C       -0.01120000       1.19810000       0.04800000
C       -1.10660000       2.29220000       0.03990000
C       -0.74280000       3.05230000       1.31350000
C       -0.01920000       4.30620000       0.97460000
C       -0.10590000       4.53340000      -0.51600000
C       -0.11140000       3.06310000      -0.91860000
C        0.98840000       2.37140000      -0.03420000
N        0.76980000       3.07660000       1.26270000
H       -2.14960000       2.09680000      -0.19490000
H       -1.20880000       2.84940000       2.26950000
H        0.09800000       5.11220000       1.68890000
H       -1.02020000       5.05980000      -0.80700000
H        0.75760000       5.07310000      -0.91740000
H       -0.14780000       2.79290000      -1.97090000
H        2.03240000       2.26600000      -0.31750000
