17
Properties=species:S:1:pos:R:3 gdb_32667=T pbc="F F F"
C       -0.08570000       1.55730000       0.00330000
C        0.07780000       0.03770000      -0.01790000
N        0.78200000      -0.46850000       1.16780000
C        2.09710000      -0.76810000       1.12450000
C        2.74700000      -1.22530000       2.23320000
C        1.95760000      -1.36630000       3.40020000
N        0.68470000      -1.08560000       3.48240000
C        0.01730000      -0.60140000       2.37410000
O       -1.15620000      -0.28970000       2.35900000
H        0.88590000       2.06080000       0.02670000
H       -0.61920000       1.88420000      -0.89420000
H       -0.66440000       1.85740000       0.87870000
H       -0.90200000      -0.44260000      -0.03170000
H        0.64170000      -0.28740000      -0.89730000
H        2.58710000      -0.62650000       0.16660000
H        3.79840000      -1.47330000       2.21220000
H        2.42470000      -1.73980000       4.31240000
