16
Properties=species:S:1:pos:R:3 gdb_44120=T pbc="F F F"
O       -0.03920000       0.18520000      -0.90130000
C       -0.03300000       1.22390000      -0.30050000
C       -1.26820000       1.98740000       0.21280000
C       -0.69790000       3.17130000       0.95720000
C        0.16750000       2.90800000       2.15290000
C        0.25010000       1.59740000       2.73110000
C        0.33690000       0.49930000       3.21560000
N        0.78050000       3.22250000       0.83340000
C        1.21080000       2.05390000       0.06260000
H       -1.87550000       2.29960000      -0.64320000
H       -1.87990000       1.32170000       0.82760000
H       -1.20660000       4.12870000       0.89620000
H        0.29470000       3.72200000       2.86240000
H        0.40900000      -0.46890000       3.64700000
H        1.93030000       1.43770000       0.60860000
H        1.69450000       2.39640000      -0.85920000
