18
Properties=species:S:1:pos:R:3 gdb_61431=T pbc="F F F"
C       -0.42340000       1.44220000      -0.22950000
N       -0.04840000       0.05170000      -0.01380000
C        0.11350000      -0.39580000       1.36760000
C       -1.23850000      -0.75500000       2.00940000
N       -1.72340000      -1.95720000       1.60270000
O       -1.80250000      -0.00810000       2.78890000
C       -0.02520000      -0.89720000      -1.00050000
N       -0.08750000      -0.42450000      -2.30160000
O        0.01360000      -2.10250000      -0.75980000
H        0.45170000       2.10150000      -0.31600000
H       -1.03140000       1.53560000      -1.13140000
H       -1.02600000       1.78230000       0.61690000
H        0.78310000      -1.25770000       1.37110000
H        0.55240000       0.41430000       1.95260000
H       -1.27970000      -2.42430000       0.81980000
H       -2.66550000      -2.19900000       1.86600000
H        0.35740000       0.45440000      -2.51610000
H        0.08910000      -1.15490000      -2.97440000
