18
Properties=species:S:1:pos:R:3 gdb_26674=T pbc="F F F"
C       -0.03090000       1.49270000       0.05670000
C        0.01100000       0.00350000      -0.01990000
C        0.00370000      -0.84080000      -1.11950000
N       -0.04450000      -0.57330000      -2.52230000
C        0.05690000      -2.17890000      -0.63680000
O        0.06660000      -3.28540000      -1.42850000
C        0.09570000      -2.14340000       0.73740000
N        0.15440000      -3.12800000       1.74930000
N        0.06710000      -0.79910000       1.08690000
H        0.85520000       1.91280000       0.54980000
H       -0.07230000       1.91040000      -0.95300000
H       -0.91040000       1.86050000       0.60070000
H        0.74850000      -0.02720000      -2.84250000
H       -0.88560000      -0.07590000      -2.79570000
H        0.03050000      -2.93840000      -2.33260000
H        0.98270000      -3.70810000       1.65430000
H       -0.64330000      -3.75500000       1.70300000
H        0.08390000      -0.49330000       2.04460000
