22
Properties=species:S:1:pos:R:3 gdb_120882=T pbc="F F F"
C       -0.04980000       1.38810000       0.10080000
O       -0.03930000      -0.01730000       0.11220000
C       -1.31800000      -0.57800000      -0.11700000
C       -1.19630000      -2.08570000      -0.02700000
C       -0.89810000      -2.72700000       1.37650000
C       -2.19710000      -3.53990000       1.24400000
C       -2.45540000      -4.91960000       1.76370000
N       -3.27800000      -2.52680000       1.13740000
C       -2.49340000      -2.90470000      -0.07210000
H        0.97130000       1.72730000       0.29410000
H       -0.37730000       1.78870000      -0.87260000
H       -0.71420000       1.80040000       0.87730000
H       -2.04250000      -0.21660000       0.62780000
H       -1.69200000      -0.28260000      -1.11410000
H       -0.47740000      -2.44050000      -0.77070000
H        0.00260000      -3.34470000       1.36910000
H       -0.86210000      -2.03830000       2.22380000
H       -2.56990000      -4.91740000       2.85450000
H       -3.37080000      -5.34020000       1.33240000
H       -1.62790000      -5.59420000       1.51850000
H       -4.15870000      -3.03940000       1.08150000
H       -2.99530000      -3.30550000      -0.94580000
