23
Properties=species:S:1:pos:R:3 gdb_101688=T pbc="F F F"
C       -1.47120000      -0.28680000      -0.02620000
C        0.04740000      -0.21020000       0.17090000
C        0.50140000      -1.15290000       1.29490000
O       -0.14400000      -0.88890000       2.53490000
C        0.78350000      -0.48200000      -1.15530000
C        2.28410000      -0.27290000      -1.12200000
O        2.57190000       1.00230000      -0.59820000
C        3.22400000      -1.41760000      -0.84000000
C        3.13230000      -0.82020000      -2.23700000
H       -1.81960000       0.47100000      -0.73550000
H       -1.76620000      -1.26940000      -0.41540000
H       -1.98760000      -0.13890000       0.92500000
H        0.30940000       0.81070000       0.48110000
H        0.23830000      -2.18850000       1.04420000
H        1.59300000      -1.10860000       1.40710000
H        0.12420000      -0.00830000       2.81660000
H        0.58010000      -1.50700000      -1.49050000
H        0.36410000       0.18340000      -1.92070000
H        3.52320000       1.14180000      -0.62430000
H        4.11840000      -1.20690000      -0.26070000
H        2.81620000      -2.40900000      -0.67350000
H        2.65860000      -1.40220000      -3.02090000
H        3.96550000      -0.21400000      -2.58020000
