15
Properties=species:S:1:pos:R:3 gdb_27832=T pbc="F F F"
N        0.04030000       1.35930000       0.16140000
C       -0.02600000      -0.01030000       0.06280000
C       -1.20160000      -0.70870000       0.03950000
C       -1.20850000      -2.14430000      -0.00130000
N       -2.26710000      -2.86880000      -0.02170000
N        0.11100000      -2.68200000      -0.01930000
C        1.21250000      -1.90310000      -0.00580000
O        2.36070000      -2.59560000      -0.03910000
N        1.22160000      -0.61260000       0.03300000
H        0.91580000       1.76240000      -0.13300000
H       -0.78090000       1.87960000      -0.10160000
H       -2.16160000      -0.21130000       0.06000000
H       -2.04540000      -3.86420000      -0.05210000
H        0.23260000      -3.68350000      -0.04960000
H        3.06870000      -1.93700000      -0.01700000
