19
Properties=species:S:1:pos:R:3 gdb_93051=T pbc="F F F"
O        0.18010000       1.43970000       0.07870000
C        0.06990000       0.02630000      -0.02440000
C        0.83670000      -0.65840000       1.12370000
C        0.14680000      -0.40700000       2.44440000
C       -1.16970000      -0.21350000       2.54300000
C       -2.06240000      -0.33640000       1.35300000
O       -2.72360000       0.89840000       0.94130000
C       -2.43180000       0.60130000      -0.44840000
C       -1.39300000      -0.45840000      -0.03500000
H       -0.31580000       1.71530000       0.86010000
H        0.54300000      -0.21930000      -0.98070000
H        0.92760000      -1.73690000       0.93140000
H        1.85570000      -0.26000000       1.15040000
H        0.76830000      -0.36260000       3.33520000
H       -1.63780000       0.00130000       3.50010000
H       -2.82110000      -1.11510000       1.52740000
H       -3.30930000       0.18590000      -0.96170000
H       -2.05990000       1.47850000      -0.98210000
H       -1.46390000      -1.43860000      -0.51220000
