21
Properties=species:S:1:pos:R:3 gdb_108856=T pbc="F F F"
C        0.03810000       1.57290000      -0.03040000
C        0.06210000       0.04030000       0.04750000
C        0.74280000      -0.63690000      -1.16770000
C        1.49140000      -1.87690000      -0.61430000
O        2.73930000      -2.13400000      -1.24940000
C        1.59140000      -1.57720000       0.86100000
C        0.83570000      -0.53980000       1.22270000
C        0.66160000      -0.00680000       2.60880000
O        1.40050000      -0.79360000       3.52470000
H        1.05550000       1.97910000      -0.06140000
H       -0.48160000       1.90440000      -0.93540000
H       -0.47870000       2.01890000       0.82590000
H       -0.98130000      -0.30390000       0.11940000
H        0.04300000      -0.88130000      -1.97100000
H        1.49320000       0.04250000      -1.59100000
H        0.91740000      -2.79670000      -0.78780000
H        3.33140000      -1.41180000      -1.01050000
H        2.18760000      -2.17860000       1.53590000
H        0.98500000       1.04810000       2.63790000
H       -0.41550000      -0.00110000       2.85840000
H        1.31220000      -0.39910000       4.39680000
