15
Properties=species:S:1:pos:R:3 gdb_3522=T pbc="F F F"
C        0.00600000       1.55060000       0.01080000
C        1.31340000       0.75780000      -0.00680000
C        0.00560000       0.06130000       0.00230000
C       -0.59430000      -1.02950000       0.90010000
C       -1.86630000      -1.02850000       0.01490000
C       -0.61230000      -1.01930000      -0.89570000
O       -0.00650000      -2.04690000      -0.00960000
H       -0.26150000       2.06710000       0.92730000
H       -0.27980000       2.07750000      -0.89430000
H        1.89440000       0.75970000      -0.92340000
H        1.91270000       0.74920000       0.89790000
H       -0.48910000      -1.18860000       1.97400000
H       -2.42320000      -1.96610000       0.01510000
H       -2.50190000      -0.13980000       0.02630000
H       -0.52870000      -1.16620000      -1.97320000
