18
Properties=species:S:1:pos:R:3 gdb_46191=T pbc="F F F"
O       -0.07920000       0.02850000      -0.24740000
C       -0.07420000       1.20710000      -0.04100000
C       -1.14050000       2.25060000       0.33420000
N       -0.05230000       3.25740000       0.46160000
C        0.97980000       2.31830000      -0.03940000
C        2.41020000       2.22290000       0.56840000
C        2.80610000       1.42550000      -0.70900000
C        1.95220000       2.62150000      -1.22150000
C        2.74210000       3.52300000      -0.22210000
H       -1.86390000       2.42390000      -0.47300000
H       -1.68790000       2.05960000       1.26310000
H       -0.18610000       4.07180000      -0.12640000
H        2.65460000       1.99180000       1.60510000
H        3.86520000       1.46040000      -0.97480000
H        2.38370000       0.42740000      -0.82400000
H        1.66980000       2.84830000      -2.25110000
H        2.26070000       4.44240000       0.11740000
H        3.79720000       3.68760000      -0.45840000
