16
Properties=species:S:1:pos:R:3 gdb_107779=T pbc="F F F"
O        0.05910000       1.37400000      -0.13040000
C        0.09290000      -0.02060000       0.11740000
C       -1.31720000      -0.55390000       0.13640000
C       -2.32310000      -0.42590000       1.29890000
C       -2.92000000      -1.69610000       0.70860000
C       -2.88940000      -1.63530000      -0.79490000
N       -1.66890000      -2.09540000       0.02430000
C       -2.15730000      -0.38660000      -1.12740000
O       -2.03870000       0.32190000      -2.09290000
H       -0.36520000       1.49110000      -0.99130000
H        0.67220000      -0.56680000      -0.64280000
H        0.59030000      -0.16570000       1.08150000
H       -1.84930000      -0.63620000       2.26180000
H       -2.92350000       0.48470000       1.36680000
H       -3.54550000      -2.43560000       1.19710000
H       -3.44690000      -2.31250000      -1.42860000
