22
Properties=species:S:1:pos:R:3 gdb_112791=T pbc="F F F"
C        0.08390000       1.30690000      -0.48580000
C       -0.05890000      -0.13720000       0.00130000
C        0.73560000      -0.45360000       1.26500000
C        0.76900000      -1.94460000       1.71430000
C        2.32210000      -1.90460000       1.61500000
C        3.01080000      -2.88490000       0.67880000
N        2.20640000      -0.52150000       1.11470000
C        3.16060000       0.43810000       1.19510000
O        4.33660000       0.21760000       1.40880000
H        1.11920000       1.53320000      -0.75940000
H       -0.53650000       1.48510000      -1.36900000
H       -0.22360000       2.02060000       0.28670000
H       -1.11400000      -0.35370000       0.21500000
H        0.25000000      -0.83070000      -0.79040000
H        0.43860000       0.23190000       2.07020000
H        0.36670000      -2.14270000       2.70800000
H        0.30080000      -2.62260000       0.99670000
H        2.81810000      -1.91870000       2.59270000
H        2.53750000      -2.88380000      -0.30840000
H        4.06280000      -2.61370000       0.56020000
H        2.95650000      -3.89970000       1.08750000
H        2.75480000       1.45710000       1.03080000
