19
Properties=species:S:1:pos:R:3 gdb_81607=T pbc="F F F"
C       -0.42640000       1.47850000       0.04700000
N       -0.19260000       0.03290000      -0.02160000
C       -1.08800000      -0.92690000       0.73360000
C        0.00750000      -1.98940000       0.43930000
C        0.71340000      -0.70280000       0.94950000
C       -0.34930000      -0.66840000       2.09370000
C       -0.53470000       0.56710000       2.99270000
C       -1.92950000       0.75810000       3.38840000
N       -3.03970000       0.89330000       3.68000000
H        0.50780000       2.00660000       0.27060000
H       -0.75780000       1.81700000      -0.94110000
H       -1.19070000       1.80090000       0.76460000
H       -2.16110000      -0.98900000       0.54810000
H        0.04290000      -2.87030000       1.08100000
H        0.15900000      -2.20690000      -0.61620000
H        1.78370000      -0.49360000       1.00860000
H       -0.34230000      -1.55220000       2.74060000
H        0.06280000       0.42830000       3.90140000
H       -0.17550000       1.48640000       2.53030000
