16
Properties=species:S:1:pos:R:3 gdb_7465=T pbc="F F F"
C        0.07480000       1.51460000      -0.06570000
C        0.03630000       0.05990000      -0.03620000
C       -0.01010000      -1.14390000      -0.01040000
C       -0.01480000      -2.59840000       0.01000000
O        0.73690000      -3.14730000      -1.05590000
C        0.22800000      -3.24580000       1.41110000
O       -1.13010000      -3.71490000       1.47670000
C       -1.40020000      -3.28650000       0.13050000
H        0.91970000       1.90390000       0.51250000
H        0.17060000       1.88780000      -1.09110000
H       -0.84180000       1.93950000       0.35760000
H        1.48030000      -2.55960000      -1.22630000
H        0.95510000      -4.06610000       1.36180000
H        0.47320000      -2.56600000       2.23360000
H       -2.27830000      -2.63690000       0.06530000
H       -1.49440000      -4.12610000      -0.56880000
