25
Properties=species:S:1:pos:R:3 gdb_121905=T pbc="F F F"
C        0.06550000       1.45780000       0.14530000
C       -0.01410000      -0.06850000      -0.00800000
C        0.86280000      -0.75550000       1.04870000
C       -1.46930000      -0.57150000       0.05260000
C       -2.35690000       0.00560000      -1.05390000
O       -1.41950000      -1.99570000      -0.02410000
C       -2.62000000      -2.67890000       0.29100000
C       -2.23840000      -4.11760000       0.60580000
O       -1.37040000      -4.19410000       1.71850000
H        1.11000000       1.78450000       0.14410000
H       -0.44420000       1.98750000      -0.66330000
H       -0.37850000       1.78220000       1.09430000
H        0.37460000      -0.33790000      -1.00000000
H        0.47770000      -0.57370000       2.05960000
H        0.90710000      -1.83430000       0.88870000
H        1.88570000      -0.36720000       1.01060000
H       -1.89310000      -0.29070000       1.03400000
H       -3.36980000      -0.40250000      -0.99990000
H       -2.44200000       1.09130000      -0.96670000
H       -1.94420000      -0.23500000      -2.03930000
H       -3.09960000      -2.22220000       1.17120000
H       -3.33580000      -2.65150000      -0.54470000
H       -3.13780000      -4.69080000       0.85490000
H       -1.78690000      -4.57150000      -0.29110000
H       -0.67590000      -3.54680000       1.54990000
