20
Properties=species:S:1:pos:R:3 gdb_7369=T pbc="F F F"
C       -0.05030000       1.57630000       0.03290000
C        0.01730000       0.04740000       0.01020000
C       -1.37520000      -0.59470000      -0.01270000
N       -1.34600000      -2.05400000       0.00080000
C       -1.27460000      -2.73610000       1.27890000
C       -1.33060000      -2.70720000      -1.20780000
N       -1.37340000      -4.10090000      -1.13890000
O       -1.24320000      -2.12250000      -2.27650000
H        0.95100000       2.01710000       0.04010000
H       -0.57640000       1.96150000      -0.84730000
H       -0.57980000       1.94100000       0.92080000
H        0.56000000      -0.29500000      -0.87700000
H        0.57580000      -0.31280000       0.88400000
H       -1.96420000      -0.25860000       0.85030000
H       -1.90190000      -0.28530000      -0.91800000
H       -2.26600000      -2.99660000       1.68120000
H       -0.67870000      -3.64840000       1.19630000
H       -0.78240000      -2.08880000       2.00980000
H       -1.94200000      -4.52110000      -0.41900000
H       -1.53030000      -4.49690000      -2.05390000
