17
Properties=species:S:1:pos:R:3 gdb_40122=T pbc="F F F"
C        0.49580000       1.37380000      -0.04080000
O        1.29210000       0.20840000       0.17850000
C       -0.11840000       0.04680000       0.00660000
C       -0.88430000      -0.53540000       1.19620000
C       -1.39140000      -1.85330000       0.65300000
C       -1.20300000      -1.96870000      -0.66250000
C       -0.56100000      -0.74720000      -1.21670000
C       -0.93940000      -0.15070000      -2.51180000
O        0.31310000      -0.81380000      -2.33890000
H        0.39320000       2.04550000       0.81150000
H        0.65440000       1.86570000      -0.99980000
H       -0.22040000      -0.64660000       2.06000000
H       -1.71470000       0.11320000       1.50590000
H       -1.87360000      -2.59190000       1.28250000
H       -1.48980000      -2.80500000      -1.28790000
H       -1.66070000      -0.66460000      -3.14690000
H       -0.88830000       0.92870000      -2.64690000
