15
Properties=species:S:1:pos:R:3 gdb_130374=T pbc="F F F"
N        0.11660000       1.41870000       0.10220000
C       -0.03620000       0.07180000       0.01250000
N        0.95790000      -0.76590000      -0.00180000
H        1.95830000      -0.47730000      -0.00510000
C        0.99280000      -2.14360000      -0.01400000
N       -0.02600000      -3.00370000      -0.00300000
N        0.62480000      -4.17770000      -0.02460000
C        1.99100000      -4.09700000      -0.04670000
C        2.32040000      -2.71340000      -0.04210000
O        3.37050000      -2.01540000      -0.05510000
H        1.02780000       1.82210000      -0.05600000
H       -0.66230000       1.99620000      -0.16680000
H       -1.04260000      -0.32810000       0.00770000
H        0.07510000      -5.01940000      -0.02150000
H        2.60180000      -4.98420000      -0.06440000
