20
Properties=species:S:1:pos:R:3 gdb_11856=T pbc="F F F"
C        0.10950000       1.46110000       0.21310000
C       -0.03810000      -0.04520000      -0.02300000
C        0.65310000      -0.52470000      -1.29280000
C        2.21650000      -0.51150000      -1.33810000
C        2.14330000      -1.88750000      -2.00010000
C        2.80890000      -2.35400000      -3.21710000
O        3.14110000      -2.88660000      -1.92530000
C        0.68270000      -2.05890000      -1.58270000
H        1.16340000       1.74850000       0.29380000
H       -0.32740000       2.03550000      -0.61140000
H       -0.39090000       1.77050000       1.13590000
H        0.37180000      -0.59530000       0.83490000
H       -1.10320000      -0.30770000      -0.07270000
H        0.25150000       0.01290000      -2.15910000
H        2.71370000       0.29350000      -1.88450000
H        2.65080000      -0.58030000      -0.33440000
H        2.29640000      -3.04390000      -3.88720000
H        3.58270000      -1.74370000      -3.68210000
H        0.60140000      -2.64610000      -0.66150000
H       -0.01810000      -2.45750000      -2.32030000
