15
Properties=species:S:1:pos:R:3 gdb_29095=T pbc="F F F"
N       -0.07650000       1.43850000       0.18630000
C       -0.11660000       0.04710000       0.06180000
C       -1.20060000      -0.65660000      -0.26680000
N       -1.15500000      -2.03660000      -0.36880000
C       -0.01520000      -2.77670000      -0.14460000
N       -0.02730000      -4.04550000      -0.25170000
C        1.20370000      -1.96990000       0.22650000
N        2.29520000      -2.56930000       0.45070000
O        1.09460000      -0.61030000       0.31010000
H        0.58970000       1.85540000      -0.45850000
H        0.19220000       1.72530000       1.12380000
H       -2.14250000      -0.16800000      -0.46200000
H       -1.97820000      -2.56170000      -0.61720000
H        0.90810000      -4.39680000      -0.04640000
H        3.03320000      -1.90660000       0.68960000
