18
Properties=species:S:1:pos:R:3 gdb_37503=T pbc="F F F"
C       -0.08730000       1.58130000       0.07110000
C        1.43350000       1.46600000       0.01060000
C        1.93850000       0.50360000       1.12820000
C        2.43310000      -0.44610000       0.01390000
C        2.14900000      -1.84050000       0.46470000
C        1.11600000      -1.77740000       1.31430000
C        0.65080000      -0.34660000       1.39090000
C        0.03210000       0.04410000       0.00100000
N        1.30160000       0.20410000      -0.84330000
H       -0.55980000       2.01520000       0.95630000
H       -0.49710000       2.02050000      -0.84100000
H        2.09750000       2.25500000      -0.34360000
H        2.54930000       0.79440000       1.98490000
H        3.39030000      -0.23600000      -0.46290000
H        2.64590000      -2.72930000       0.09770000
H        0.59800000      -2.60950000       1.77560000
H        0.03240000      -0.07410000       2.24680000
H       -0.75150000      -0.59910000      -0.39680000
