15
Properties=species:S:1:pos:R:3 gdb_70720=T pbc="F F F"
O       -0.10210000       1.36700000       0.11570000
C       -0.04950000      -0.01730000       0.03750000
C       -0.47750000      -0.69380000      -1.26690000
C       -1.33670000      -0.78380000      -0.03920000
O       -1.35260000      -2.04220000       0.59410000
C       -0.52090000      -2.08470000       1.70220000
O        0.85960000      -1.82570000       1.37080000
C        1.09420000      -0.62440000       0.79450000
O        2.16450000      -0.08190000       0.86960000
H        0.81870000       1.66450000       0.10060000
H       -0.78260000      -0.00790000      -2.04860000
H        0.02510000      -1.60020000      -1.58360000
H       -2.27490000      -0.23900000       0.01180000
H       -0.82430000      -1.35860000       2.46920000
H       -0.54190000      -3.09950000       2.09820000
