22
Properties=species:S:1:pos:R:3 gdb_91424=T pbc="F F F"
C        0.92460000       1.06690000      -0.76920000
C        0.21960000      -0.13660000      -0.13910000
O        0.25900000      -1.21320000      -1.10290000
C        0.98840000      -2.36110000      -0.72040000
C        0.48640000      -2.88370000       0.63940000
N        1.40510000      -1.88670000       1.30240000
C        2.26380000      -1.98440000       0.06170000
C        0.71460000      -0.57810000       1.29950000
C        1.57900000       0.45760000       2.01890000
H        2.00180000       0.91220000      -0.87580000
H        0.51120000       1.22750000      -1.76880000
H        0.76430000       1.97670000      -0.18330000
H       -0.84170000       0.12590000      -0.04700000
H        1.03020000      -3.01080000      -1.59890000
H       -0.57750000      -2.76540000       0.86270000
H        0.80930000      -3.90300000       0.87300000
H        2.96890000      -2.81430000       0.16580000
H        2.80590000      -1.08050000      -0.22310000
H       -0.18200000      -0.73280000       1.91150000
H        2.51880000       0.64750000       1.49180000
H        1.05560000       1.41240000       2.12550000
H        1.82390000       0.08240000       3.01550000
