13
Properties=species:S:1:pos:R:3 gdb_129076=T pbc="F F F"
N       -0.08370000       1.32240000       0.00610000
C       -0.00380000       0.04130000       0.00930000
C        1.21390000      -0.76400000       0.00400000
N        1.23860000      -2.06000000       0.00770000
N        0.04900000      -2.66830000       0.01700000
N       -1.15830000      -2.10980000       0.02300000
C       -1.21630000      -0.80170000       0.01940000
C       -2.50330000      -0.20060000       0.02600000
C       -3.58460000       0.32620000       0.03140000
H        0.85190000       1.73620000      -0.00090000
H        2.18200000      -0.26970000      -0.00360000
H        0.06670000      -3.67470000       0.02010000
H       -4.53720000       0.79610000       0.03620000
