17
Properties=species:S:1:pos:R:3 gdb_130389=T pbc="F F F"
N       -0.86350000       1.84520000       0.65630000
H       -1.37400000       1.82260000      -0.22010000
H        0.01030000       2.33420000       0.48200000
H       -1.56300000       2.58830000       2.51790000
C       -0.53890000       0.47540000       1.08780000
C        0.27840000       0.50950000       2.38100000
O        1.47580000       1.22670000       2.06280000
C       -0.44540000       1.14110000       3.53230000
N       -1.30570000       2.19360000       3.41830000
C       -1.67810000       2.47710000       4.69500000
N       -1.08690000       1.66630000       5.53980000
N       -0.29980000       0.81130000       4.79590000
H       -1.47020000      -0.07110000       1.26830000
H        0.04170000      -0.08680000       0.34200000
H        0.51680000      -0.51950000       2.68020000
H        1.95830000       1.36230000       2.88560000
H       -2.36920000       3.26330000       4.95570000
