17
Properties=species:S:1:pos:R:3 gdb_29642=T pbc="F F F"
C       -0.03710000       1.45100000      -0.02330000
N        0.05490000       0.01070000       0.03300000
C        0.12090000      -0.79550000      -1.08930000
N        0.17310000      -0.37360000      -2.28850000
O        0.11090000      -2.09230000      -0.65280000
C        0.07110000      -2.07810000       0.76530000
N        0.04600000      -3.25750000       1.49460000
C        0.02590000      -0.79870000       1.16860000
N       -0.13400000      -0.25370000       2.44120000
H        0.95040000       1.92950000      -0.00720000
H       -0.53030000       1.72380000      -0.95800000
H       -0.62410000       1.80760000       0.82660000
H        0.19130000      -1.15500000      -2.93820000
H       -0.78150000      -3.82100000       1.31910000
H        0.86180000      -3.84190000       1.33580000
H       -0.16670000      -1.00030000       3.12640000
H        0.60870000       0.39270000       2.68990000
