18
Properties=species:S:1:pos:R:3 gdb_94917=T pbc="F F F"
O        0.08820000       1.41890000      -0.02290000
C        0.02230000       0.00850000      -0.03160000
C        0.81140000      -0.68230000       1.11440000
C        0.06000000      -1.99360000       1.43510000
C       -1.36460000      -1.78170000       0.93320000
C       -2.12670000      -0.53510000       1.37140000
C       -1.71210000       0.31430000       2.45220000
N       -1.38750000       1.01960000       3.31190000
C       -1.38940000      -0.57880000       0.03650000
H       -0.19820000       1.72740000       0.84520000
H        0.44300000      -0.28170000      -1.00110000
H        1.85190000      -0.85700000       0.83300000
H        0.82620000      -0.02060000       1.98390000
H        0.49100000      -2.83510000       0.88220000
H        0.10220000      -2.25220000       2.49770000
H       -1.97840000      -2.65280000       0.73240000
H       -3.20680000      -0.61070000       1.29580000
H       -2.00980000      -0.52550000      -0.85060000
