18
Properties=species:S:1:pos:R:3 gdb_82789=T pbc="F F F"
O        0.03920000       1.46040000      -0.08060000
C        0.01280000       0.05590000       0.03170000
C        0.23860000      -0.61770000       1.42550000
C       -0.38180000       0.26800000       2.51520000
N       -1.83840000       0.09470000       2.41860000
C       -2.39640000      -0.07320000       1.07030000
C       -2.13620000      -1.25110000       1.96720000
C       -0.91890000      -1.63330000       1.07870000
C       -1.37480000      -0.58580000       0.01470000
H        0.95660000       1.74990000      -0.11260000
H        0.64750000      -0.41500000      -0.73270000
H        1.23720000      -0.99150000       1.65870000
H       -0.07480000      -0.04800000       3.51780000
H       -0.12220000       1.32100000       2.38130000
H       -3.31260000       0.46020000       0.84520000
H       -2.79320000      -1.89770000       2.53710000
H       -0.68540000      -2.66510000       0.83250000
H       -1.84130000      -0.87170000      -0.92890000
