19
Properties=species:S:1:pos:R:3 gdb_26124=T pbc="F F F"
C       -0.04160000       1.36040000       1.08960000
C       -0.18640000       0.45180000      -0.13300000
O        0.89430000      -0.48220000      -0.22100000
C       -1.51300000      -0.25820000      -0.18690000
C       -1.98610000      -1.28630000      -0.95550000
C       -1.26610000      -2.03010000      -2.04020000
C       -3.34210000      -1.49870000      -0.52820000
C       -3.58690000      -0.59350000       0.45150000
O       -2.48730000       0.16860000       0.67630000
H        0.94800000       1.82300000       1.07230000
H       -0.80330000       2.14430000       1.09420000
H       -0.14560000       0.78790000       2.01710000
H       -0.06620000       1.06400000      -1.03630000
H        0.75940000      -1.13800000       0.47300000
H       -1.35910000      -3.11360000      -1.90510000
H       -1.68320000      -1.79630000      -3.02710000
H       -0.20480000      -1.77760000      -2.04600000
H       -4.03270000      -2.23520000      -0.91060000
H       -4.44430000      -0.37120000       1.06540000
