18
Properties=species:S:1:pos:R:3 gdb_70708=T pbc="F F F"
N       -0.11390000       1.45810000       0.19490000
C       -0.07270000       0.02350000       0.05590000
C       -0.41100000      -0.68460000      -1.25650000
C       -1.34370000      -0.77780000      -0.07220000
C       -1.43650000      -2.09550000       0.69070000
C       -0.41810000      -2.11950000       1.82150000
O        0.91110000      -1.78470000       1.36960000
C        1.09180000      -0.57010000       0.79770000
O        2.16730000      -0.03310000       0.83880000
H        0.83820000       1.80480000       0.10440000
H       -0.65960000       1.87300000      -0.55380000
H       -0.68710000      -0.04220000      -2.08670000
H        0.14370000      -1.57480000      -1.53820000
H       -2.25320000      -0.18740000      -0.12810000
H       -2.43590000      -2.22490000       1.11860000
H       -1.26540000      -2.94380000       0.01850000
H       -0.70240000      -1.41450000       2.61210000
H       -0.32020000      -3.11170000       2.26700000
