15
Properties=species:S:1:pos:R:3 gdb_74320=T pbc="F F F"
N        0.34030000       1.41490000       0.22830000
C        0.10660000       0.08310000       0.03930000
N       -1.05060000      -0.42060000      -0.20200000
C       -0.94860000      -1.88460000      -0.18510000
C       -1.48990000      -2.47400000      -1.48660000
O       -2.17880000      -3.45780000      -1.54310000
C        0.53840000      -2.21410000      -0.00430000
O        1.36210000      -1.67770000      -1.04740000
C        1.21740000      -0.92330000       0.16910000
H        1.25360000       1.76780000      -0.00950000
H       -0.42810000       2.02580000      -0.00900000
H       -1.53510000      -2.31000000       0.63730000
H       -1.17630000      -1.91540000      -2.39300000
H        0.87760000      -3.14560000       0.43770000
H        2.12140000      -0.75640000       0.74710000
