14
Properties=species:S:1:pos:R:3 gdb_125754=T pbc="F F F"
C        0.20150000       1.50980000      -0.08150000
C        0.03380000       0.03240000      -0.01900000
N       -0.30740000      -0.68260000      -1.05920000
O       -0.34910000      -1.99370000      -0.55970000
C       -0.02740000      -1.90840000       0.73220000
C        0.03570000      -3.17060000       1.53830000
C       -1.24730000      -3.87270000       1.60890000
N       -2.25410000      -4.43360000       1.67380000
N        0.22150000      -0.70440000       1.13750000
H        1.21730000       1.78750000       0.21460000
H        0.00880000       1.87030000      -1.09260000
H       -0.48850000       1.99710000       0.61350000
H        0.78310000      -3.84710000       1.10750000
H        0.36490000      -2.90540000       2.54590000
