17
Properties=species:S:1:pos:R:3 gdb_87267=T pbc="F F F"
O       -0.18950000       1.31550000      -0.04040000
C       -0.02970000      -0.05610000       0.09150000
C       -0.63700000      -0.79340000       1.26830000
C       -1.23710000      -0.93550000      -0.11500000
O       -2.40550000      -0.20510000      -0.40010000
C       -1.14080000      -2.22260000      -0.88620000
O       -2.17730000      -3.12780000      -0.47650000
C       -3.27780000      -3.20650000      -1.25270000
O       -4.23920000      -3.84190000      -0.94120000
H       -1.12370000       1.46070000      -0.24680000
H        0.93210000      -0.39580000      -0.28270000
H       -0.11240000      -1.64260000       1.69310000
H       -1.18890000      -0.18850000       1.98020000
H       -3.08580000      -0.45220000       0.23580000
H       -1.22480000      -2.02360000      -1.96210000
H       -0.18980000      -2.72580000      -0.69540000
H       -3.18090000      -2.63390000      -2.19460000
