21
Properties=species:S:1:pos:R:3 gdb_101055=T pbc="F F F"
C        0.05640000       1.46820000       0.29130000
C        0.33670000      -0.03150000       0.16030000
C        0.65650000      -0.50050000      -1.27700000
C        1.98740000       0.06310000      -1.78800000
C        0.60690000      -2.03270000      -1.32410000
C        1.58290000      -2.86130000      -2.06640000
O        1.68770000      -2.71610000      -0.65390000
C       -0.70340000      -2.60760000      -1.09730000
C       -1.80550000      -3.05820000      -0.93060000
H        0.92650000       2.08000000       0.03410000
H       -0.77030000       1.77480000      -0.35990000
H       -0.22310000       1.71840000       1.31950000
H        1.17060000      -0.31760000       0.81310000
H       -0.53750000      -0.58580000       0.51880000
H       -0.15090000      -0.14900000      -1.93390000
H        2.13250000      -0.13870000      -2.85310000
H        2.02040000       1.14740000      -1.65890000
H        2.82710000      -0.36850000      -1.23410000
H        1.27240000      -3.84540000      -2.41320000
H        2.36850000      -2.38580000      -2.64800000
H       -2.77390000      -3.46640000      -0.77670000
