16
Properties=species:S:1:pos:R:3 gdb_34447=T pbc="F F F"
N       -0.02540000      -1.12950000       0.05270000
C       -0.02550000       0.02580000       0.05500000
C        0.01250000       1.47450000       0.01560000
O       -0.84760000       2.05370000       0.97430000
C       -0.64500000       3.46450000       0.75150000
C        0.37060000       3.43010000      -0.37920000
C        1.36630000       2.26000000      -0.06870000
C        1.44540000       1.94320000      -1.57860000
C       -0.04680000       2.26250000      -1.33810000
H       -1.59520000       3.93480000       0.47440000
H       -0.26710000       3.93250000       1.66750000
H        0.74710000       4.36330000      -0.79640000
H        2.15980000       2.24730000       0.67840000
H        1.99490000       2.66250000      -2.18890000
H        1.69460000       0.91700000      -1.85810000
H       -0.87440000       2.25280000      -2.04720000
