14
Properties=species:S:1:pos:R:3 gdb_129845=T pbc="F F F"
N        0.16460000       1.41400000       0.15160000
C       -0.01920000       0.05920000       0.05450000
C       -1.13470000      -0.73280000       0.04320000
C       -0.57520000      -2.03500000       0.00340000
N       -1.22930000      -3.26100000      -0.02120000
C       -2.58490000      -3.46080000      -0.01910000
O       -3.42770000      -2.59420000       0.00270000
N        0.74130000      -2.04650000      -0.01230000
O        1.09630000      -0.68170000       0.02050000
H        1.05900000       1.74070000      -0.18530000
H       -0.61040000       1.97380000      -0.16940000
H       -2.17300000      -0.46240000       0.06510000
H       -0.62640000      -4.07110000      -0.04240000
H       -2.82410000      -4.54080000      -0.04080000
