18
Properties=species:S:1:pos:R:3 gdb_103665=T pbc="F F F"
C       -0.47430000       1.67640000      -0.13240000
C        0.01900000       0.24370000      -0.17660000
C       -1.08130000      -0.77330000       0.13340000
O       -1.55520000      -0.61120000       1.45290000
C        0.95940000      -0.15190000      -1.34070000
C        2.00240000      -0.42980000      -0.22940000
O        1.10840000       0.03480000       0.79710000
C        2.39030000      -1.83350000      -0.05070000
N        2.69280000      -2.94130000       0.07970000
H        0.35770000       2.37950000      -0.22430000
H       -1.17760000       1.85800000      -0.95250000
H       -0.99410000       1.85980000       0.81110000
H       -1.93450000      -0.62300000      -0.53770000
H       -0.69460000      -1.79050000      -0.03410000
H       -0.78610000      -0.71270000       2.02760000
H        0.65430000      -1.01730000      -1.92960000
H        1.23650000       0.66760000      -2.00390000
H        2.91150000       0.17990000      -0.27540000
