15
Properties=species:S:1:pos:R:3 gdb_21948=T pbc="F F F"
O       -0.07750000       1.46330000       0.05390000
C        0.03190000       0.05130000       0.08090000
C       -1.37790000      -0.51930000      -0.09550000
C       -1.40450000      -2.01560000      -0.05620000
C       -1.54230000      -2.90290000      -1.07810000
O       -1.49530000      -4.16700000      -0.63210000
N       -1.31850000      -4.14940000       0.74710000
C       -1.26650000      -2.88200000       1.07030000
H        0.80200000       1.83790000       0.15710000
H        0.68110000      -0.32340000      -0.72600000
H        0.45840000      -0.30360000       1.03290000
H       -2.01490000      -0.10310000       0.69310000
H       -1.78060000      -0.15750000      -1.04680000
H       -1.68470000      -2.78450000      -2.14150000
H       -1.13670000      -2.61320000       2.11000000
