17
Properties=species:S:1:pos:R:3 gdb_53200=T pbc="F F F"
C        0.00380000       1.53750000      -0.05570000
C        0.03450000       0.08270000      -0.01840000
C        0.05650000      -1.12080000       0.00190000
C        0.07080000      -2.57670000       0.05240000
C        0.66210000      -3.16130000       1.31920000
C       -0.17360000      -3.98450000       1.95090000
C       -1.49640000      -4.12810000       1.25210000
C       -1.36440000      -3.19930000       0.03620000
O       -2.20370000      -2.98990000      -0.79270000
H        0.92230000       1.94510000      -0.49230000
H       -0.83750000       1.89830000      -0.65760000
H       -0.10220000       1.96040000       0.94940000
H        0.59060000      -2.96120000      -0.83950000
H        1.66150000      -2.90290000       1.64700000
H        0.05580000      -4.50600000       2.87310000
H       -1.70840000      -5.15000000       0.91130000
H       -2.35730000      -3.82720000       1.86270000
