19
Properties=species:S:1:pos:R:3 gdb_36718=T pbc="F F F"
C        0.01520000      -1.20410000       0.12590000
C        0.03300000      -0.00980000       0.00310000
C        0.02030000       1.43920000      -0.15510000
O        1.31630000       1.95750000       0.06930000
C        1.37680000       3.38250000       0.03770000
C        2.73260000       3.82640000       0.62920000
C        3.24170000       4.97590000      -0.27510000
C        2.39340000       4.83810000      -1.51600000
C        1.38640000       3.98330000      -1.35230000
H        0.00660000      -2.26020000       0.23680000
H       -0.34230000       1.68970000      -1.16560000
H       -0.69970000       1.88210000       0.55510000
H        0.52570000       3.77410000       0.62270000
H        2.65770000       4.10760000       1.68160000
H        3.40180000       2.96420000       0.56350000
H        3.08710000       5.95820000       0.19160000
H        4.31470000       4.90620000      -0.48730000
H        2.58760000       5.40800000      -2.41870000
H        0.63140000       3.75270000      -2.09540000
