19
Properties=species:S:1:pos:R:3 gdb_120419=T pbc="F F F"
N        0.18260000       1.49760000       0.20710000
C        0.09930000       0.06650000       0.03000000
C       -1.27650000      -0.63590000       0.23070000
C       -2.51510000       0.22990000       0.32010000
C       -3.81030000      -0.58690000       0.27260000
O       -4.96790000       0.21930000       0.41380000
O       -1.12980000      -1.26670000      -1.09420000
C        0.02750000      -0.56500000      -1.35850000
N        0.71380000      -0.47390000      -2.40420000
H        1.15340000       1.79070000       0.20530000
H       -0.26200000       1.98300000      -0.56560000
H        0.87500000      -0.40740000       0.63730000
H       -1.28180000      -1.41580000       0.99930000
H       -2.47610000       0.80330000       1.25270000
H       -2.51300000       0.95800000      -0.50210000
H       -3.84010000      -1.18270000      -0.65120000
H       -3.83530000      -1.29080000       1.11240000
H       -5.04120000       0.77140000      -0.37100000
H        0.32040000      -1.03490000      -3.16230000
