18
Properties=species:S:1:pos:R:3 gdb_93991=T pbc="F F F"
C       -0.06590000       1.39580000      -0.00700000
N       -0.00740000      -0.03140000       0.21730000
C       -1.13390000      -0.87450000      -0.13690000
C       -0.59230000      -2.27800000       0.16680000
N        0.84710000      -2.09200000      -0.01910000
C        1.72890000      -3.12400000      -0.18260000
O        2.93130000      -3.02170000      -0.29060000
C        1.19230000      -0.70880000       0.04490000
N        2.33110000      -0.16020000      -0.02930000
H        0.88940000       1.82700000       0.29250000
H       -0.24180000       1.64140000      -1.06580000
H       -0.87130000       1.83360000       0.59110000
H       -2.01760000      -0.63400000       0.46160000
H       -1.40510000      -0.77200000      -1.20130000
H       -0.81670000      -2.56860000       1.19980000
H       -0.98630000      -3.04190000      -0.50730000
H        1.20660000      -4.10060000      -0.21440000
H        3.05920000      -0.86630000      -0.10310000
