23
Properties=species:S:1:pos:R:3 gdb_59546=T pbc="F F F"
C        0.04470000       1.54110000      -0.08810000
C        0.07300000       0.01690000       0.09380000
C        0.73430000      -0.36380000       1.42620000
C       -1.33450000      -0.57470000      -0.01010000
C       -2.10600000      -0.53200000      -1.37860000
C       -2.34070000      -2.04400000      -1.28040000
C       -1.00750000      -2.75910000      -1.24180000
C       -1.53220000      -2.10090000       0.00510000
O       -1.83320000      -2.82460000       1.14880000
H        1.05500000       1.96260000      -0.05570000
H       -0.40530000       1.82400000      -1.04510000
H       -0.53960000       2.01800000       0.70810000
H        0.68140000      -0.40640000      -0.71820000
H        0.15700000       0.02190000       2.27480000
H        0.81010000      -1.45000000       1.54300000
H        1.74680000       0.04720000       1.49810000
H       -1.96740000      -0.14170000       0.77400000
H       -3.01880000       0.06560000      -1.33700000
H       -1.51630000      -0.21070000      -2.24440000
H       -3.25480000      -2.56520000      -1.53500000
H       -1.08020000      -3.84200000      -1.22260000
H       -0.15130000      -2.37180000      -1.79020000
H       -1.01620000      -3.19430000       1.49990000
