17
Properties=species:S:1:pos:R:3 gdb_45061=T pbc="F F F"
O        0.02840000       0.07940000      -0.46220000
C        0.02920000       1.21110000      -0.07050000
O       -1.09940000       1.82530000       0.40460000
C       -0.81170000       3.14990000       0.81620000
C        0.06330000       3.31080000       2.02230000
C        0.65630000       3.42650000       0.62580000
C        1.18580000       2.16740000       0.01460000
C        2.56140000       1.57660000       0.24960000
C        2.21230000       2.12270000      -1.09900000
H       -1.61030000       3.83920000       0.57510000
H       -0.04230000       4.22740000       2.59230000
H        0.28700000       2.42650000       2.61010000
H        1.01120000       4.38750000       0.27400000
H        3.23490000       2.14420000       0.88190000
H        2.60750000       0.49900000       0.36120000
H        2.02590000       1.41670000      -1.90020000
H        2.64430000       3.06980000      -1.40390000
