18
Properties=species:S:1:pos:R:3 gdb_10552=T pbc="F F F"
O       -0.16480000       1.48100000       0.07020000
C       -0.03700000       0.07570000       0.23220000
C       -1.34610000      -0.55810000      -0.22670000
C       -1.36250000      -2.07490000      -0.07890000
C       -1.73420000      -2.66110000       1.27880000
C       -2.70510000      -2.75860000       0.13900000
C       -0.38520000      -2.78860000      -0.86020000
C        0.43390000      -3.37090000      -1.52240000
H        0.67600000       1.88650000       0.30000000
H        0.79500000      -0.32570000      -0.36470000
H        0.15490000      -0.19060000       1.28420000
H       -2.16630000      -0.13050000       0.36070000
H       -1.52290000      -0.28210000      -1.27220000
H       -1.22090000      -3.56110000       1.59500000
H       -1.94310000      -1.95410000       2.07450000
H       -3.58240000      -2.12090000       0.15020000
H       -2.85200000      -3.72550000      -0.32690000
H        1.15460000      -3.88900000      -2.10480000
