21
Properties=species:S:1:pos:R:3 gdb_106668=T pbc="F F F"
C       -0.17790000       1.58330000       0.06160000
C        0.04420000       0.07730000       0.00390000
C        1.13130000      -0.51590000      -0.96420000
C        1.75800000      -1.27480000       0.21390000
C        2.28150000      -2.67240000       0.18490000
O        3.58470000      -2.66490000      -0.39320000
C        2.21210000      -0.26440000       1.24900000
C        0.75700000      -0.62900000       1.16690000
O        0.08880000      -1.23860000       2.21910000
H        0.75740000       2.12240000       0.24650000
H       -0.59350000       1.95700000      -0.88060000
H       -0.88050000       1.84830000       0.85990000
H       -0.90860000      -0.43240000      -0.17250000
H        0.70920000      -1.16840000      -1.73260000
H        1.78550000       0.21710000      -1.44730000
H        2.30070000      -3.07160000       1.21170000
H        1.59950000      -3.31030000      -0.40060000
H        3.87580000      -3.57840000      -0.47500000
H        2.72940000      -0.70070000       2.09820000
H        2.58650000       0.71040000       0.94530000
H        0.12310000      -0.65250000       2.98230000
