17
Properties=species:S:1:pos:R:3 gdb_82350=T pbc="F F F"
O        0.30470000       1.02490000       0.68060000
C       -0.01540000      -0.22640000       0.11820000
C       -1.48530000      -0.29950000      -0.22810000
C       -1.93840000       0.56670000      -1.38800000
C       -1.58530000      -0.87060000      -1.62250000
N       -0.26210000      -1.15240000      -2.16700000
C        0.71550000      -0.52880000      -1.26160000
C        1.29450000       0.69490000      -1.84330000
N        1.79380000       1.63520000      -2.29250000
H        1.24940000       1.06070000       0.86560000
H        0.23500000      -1.04090000       0.81460000
H       -2.18160000      -0.55330000       0.56170000
H       -2.99040000       0.82650000      -1.41950000
H       -1.27650000       1.34540000      -1.74970000
H       -2.35290000      -1.57560000      -1.91760000
H       -0.11230000      -2.15450000      -2.17340000
H        1.55440000      -1.21400000      -1.10260000
