17
Properties=species:S:1:pos:R:3 gdb_33111=T pbc="F F F"
C        0.01700000       1.38490000      -0.01110000
O        0.00960000      -0.02180000       0.01560000
C        0.62820000      -0.59150000      -1.11490000
C        0.56370000      -2.07630000      -1.00430000
C        0.01110000      -2.83610000      -0.03770000
O        0.20870000      -4.16510000      -0.38910000
C        0.87740000      -4.09600000      -1.55770000
N        1.15370000      -5.28670000      -2.18210000
N        1.12810000      -2.89620000      -1.98410000
H        1.04210000       1.78780000      -0.03240000
H       -0.52400000       1.77990000      -0.88560000
H       -0.47990000       1.73160000       0.89800000
H        0.13110000      -0.26320000      -2.04460000
H        1.68080000      -0.26750000      -1.19560000
H       -0.50850000      -2.64990000       0.88300000
H        1.28860000      -6.06850000      -1.55800000
H        1.87370000      -5.20250000      -2.88410000
