23
Properties=species:S:1:pos:R:3 gdb_113814=T pbc="F F F"
C        0.10450000       1.57930000       0.05990000
C       -0.25400000       0.10960000      -0.19060000
C        0.58130000      -0.51280000      -1.29120000
C        1.93820000      -1.10980000      -0.99520000
C        0.79720000      -2.00550000      -1.42080000
C        0.20020000      -2.98960000      -0.46380000
C       -1.08390000      -3.72550000      -0.81450000
C        0.23140000      -4.46190000      -0.77060000
O        0.84350000      -4.84810000      -1.96810000
H        1.15530000       1.68270000       0.35010000
H       -0.04880000       2.18190000      -0.84230000
H       -0.51080000       2.01020000       0.85610000
H       -0.12790000      -0.45640000       0.73980000
H       -1.31840000       0.03210000      -0.44930000
H        0.50500000       0.01720000      -2.23910000
H        2.75820000      -0.94190000      -1.68480000
H        2.24140000      -1.15520000       0.04740000
H        0.85250000      -2.38380000      -2.43600000
H        0.32590000      -2.74410000       0.58660000
H       -1.82150000      -3.90900000      -0.04050000
H       -1.49530000      -3.53530000      -1.80100000
H        0.40340000      -5.14290000       0.06330000
H        0.31790000      -5.55700000      -2.35260000
