19
Properties=species:S:1:pos:R:3 gdb_110018=T pbc="F F F"
C        0.44630000       1.35020000      -0.50330000
C       -0.09360000       0.08700000       0.16740000
O       -0.16460000      -1.00590000      -0.77310000
C        1.06180000      -1.70660000      -0.76670000
C        1.70420000      -1.41630000       0.58640000
O        2.76640000      -1.83470000       0.98250000
C        0.76880000      -0.46300000       1.32080000
C        1.52810000       0.50630000       2.23820000
O        2.19180000      -0.18510000       3.27270000
H        1.48230000       1.22700000      -0.83700000
H       -0.16550000       1.58690000      -1.37760000
H        0.41260000       2.20320000       0.18180000
H       -1.12360000       0.26210000       0.49000000
H        0.87640000      -2.77830000      -0.89830000
H        1.74420000      -1.38360000      -1.56890000
H        0.13380000      -1.09570000       1.95720000
H        2.22810000       1.11130000       1.64150000
H        0.82640000       1.19820000       2.71640000
H        2.77320000      -0.82470000       2.83830000
