21
Properties=species:S:1:pos:R:3 gdb_69832=T pbc="F F F"
C        0.05940000       1.54400000       0.03490000
C       -0.00640000       0.03230000       0.00850000
C       -1.30380000      -0.57200000      -0.53090000
C       -2.10720000      -1.30540000       0.56410000
N       -1.38450000      -2.28950000       1.37110000
C       -0.40870000      -3.14470000       0.70420000
C        0.05320000      -2.03030000       1.58320000
C        0.68920000      -0.76820000       1.06320000
N        1.27710000      -0.63140000      -0.28350000
H        1.00910000       1.88230000       0.45640000
H       -0.02510000       1.95280000      -0.97880000
H       -0.75720000       1.96190000       0.63470000
H       -1.93700000       0.21920000      -0.94520000
H       -1.09290000      -1.24800000      -1.36800000
H       -2.50640000      -0.56400000       1.26710000
H       -2.96760000      -1.81300000       0.11440000
H       -0.36210000      -4.16900000       1.06510000
H       -0.26800000      -3.05410000      -0.37060000
H        0.38560000      -2.29770000       2.58360000
H        1.25370000      -0.23260000       1.82310000
H        1.12800000      -1.48580000      -0.81560000
