18
Properties=species:S:1:pos:R:3 gdb_109284=T pbc="F F F"
C        0.41040000       0.80500000      -0.71920000
C       -0.35530000       0.31390000       0.52070000
C        0.55470000      -0.14850000       1.61970000
N        0.65020000       0.42360000       2.74030000
C        1.59480000      -0.12580000       3.70220000
C        1.76060000      -1.64230000       3.54760000
C        2.02350000      -1.99890000       2.10580000
O        2.74900000      -2.85600000       1.69910000
O        1.30070000      -1.25090000       1.19950000
H        1.04710000       0.01490000      -1.12430000
H       -0.29160000       1.11430000      -1.49820000
H        1.04290000       1.66300000      -0.47230000
H       -0.98120000       1.10750000       0.93310000
H       -1.00600000      -0.52260000       0.23840000
H        2.56140000       0.38170000       3.57430000
H        1.24940000       0.11600000       4.71120000
H        2.56610000      -2.05120000       4.15950000
H        0.82760000      -2.14020000       3.84260000
