22
Properties=species:S:1:pos:R:3 gdb_14163=T pbc="F F F"
C       -0.11670000       1.51630000       0.01060000
C       -0.04000000      -0.01690000       0.00570000
C       -1.46820000      -0.54140000      -0.17070000
C        1.10880000      -0.61050000      -0.89480000
C        2.09150000      -0.25540000       0.25950000
C        0.86420000      -0.62920000       1.14180000
C        0.78370000      -2.14700000       0.87530000
C        0.97080000      -2.13270000      -0.68250000
H        0.84610000       2.01450000       0.13110000
H       -0.55630000       1.87610000      -0.92710000
H       -0.76710000       1.86010000       0.82340000
H       -1.89850000      -0.16630000      -1.10680000
H       -1.54310000      -1.62910000      -0.18980000
H       -2.10870000      -0.18260000       0.64380000
H        1.26550000      -0.25960000      -1.91690000
H        2.98230000      -0.88270000       0.36080000
H        2.38280000       0.79170000       0.30410000
H        0.77360000      -0.29720000       2.17810000
H        1.58520000      -2.68770000       1.38680000
H       -0.16400000      -2.59120000       1.18960000
H        0.12540000      -2.56910000      -1.22020000
H        1.87190000      -2.66580000      -0.99930000
