20
Properties=species:S:1:pos:R:3 gdb_98297=T pbc="F F F"
C       -0.09600000       1.31570000       0.09140000
N        0.12700000      -0.11170000      -0.04300000
C        0.66510000      -0.67310000      -1.14930000
O        1.00760000      -0.04220000      -2.14090000
C        0.81120000      -2.21150000      -1.14130000
O        1.54420000      -2.58330000      -2.27740000
C        1.46500000      -2.74190000       0.11850000
C        0.62100000      -3.16800000       1.30360000
C        1.32430000      -4.19900000       0.45780000
H        0.15890000       1.77990000      -0.86150000
H       -1.14400000       1.52880000       0.32700000
H        0.53480000       1.74730000       0.87670000
H       -0.05320000      -0.71400000       0.74380000
H       -0.21340000      -2.62640000      -1.19330000
H        1.61540000      -1.76360000      -2.79750000
H        2.42520000      -2.28610000       0.34330000
H        0.99710000      -2.97110000       2.30140000
H       -0.46010000      -3.10630000       1.21640000
H        0.71900000      -4.81170000      -0.20140000
H        2.18250000      -4.71010000       0.87830000
