19
Properties=species:S:1:pos:R:3 gdb_66945=T pbc="F F F"
C        0.03840000       1.51510000       0.10880000
C        0.05010000       0.02330000      -0.01550000
C       -0.93730000      -0.91880000       0.71490000
O       -1.04560000      -2.13550000      -0.02320000
C        0.39640000      -2.03060000      -0.22720000
C        0.52220000      -1.03500000       0.99020000
C        0.53580000      -0.83320000      -1.16980000
C        0.30670000      -0.75550000      -2.64160000
C        1.70030000      -0.55070000      -2.06410000
H        1.03450000       1.93980000      -0.06200000
H       -0.64960000       1.96870000      -0.61410000
H       -0.28340000       1.82530000       1.10880000
H       -1.77580000      -0.58870000       1.31500000
H        0.89010000      -2.98700000      -0.38950000
H        1.13660000      -0.99130000       1.87910000
H        0.10500000      -1.67550000      -3.18080000
H       -0.20740000       0.11380000      -3.03960000
H        2.11430000       0.45300000      -2.07730000
H        2.43690000      -1.33300000      -2.22040000
