19
Properties=species:S:1:pos:R:3 gdb_39404=T pbc="F F F"
C       -0.06210000       1.56440000       0.07010000
C        1.49290000       1.48720000      -0.05410000
C        2.18270000       1.60730000       1.31510000
O        1.32390000       1.27430000       2.39940000
C        0.91460000      -0.07660000       2.50190000
C        0.57980000      -0.77060000       1.18800000
O        1.79480000      -0.97180000       0.40380000
C        1.33800000      -0.00210000      -0.54310000
C       -0.09780000       0.02280000       0.01630000
H       -0.46710000       2.07150000       0.94550000
H       -0.52000000       1.97750000      -0.83330000
H        1.96110000       2.17000000      -0.76760000
H        3.09800000       0.99930000       1.33540000
H        2.45470000       2.65140000       1.49610000
H        1.69790000      -0.68280000       2.98670000
H        0.03710000      -0.07350000       3.15940000
H        0.10680000      -1.73450000       1.41010000
H        1.62120000      -0.23220000      -1.57190000
H       -0.94170000      -0.48850000      -0.44670000
