21
Properties=species:S:1:pos:R:3 gdb_90337=T pbc="F F F"
C       -0.04070000       1.48480000       0.06620000
C        0.05680000      -0.03000000      -0.01400000
C        1.28560000      -0.56250000      -0.86240000
C        1.98830000      -0.68590000       0.47010000
C        2.95950000      -0.12890000       1.18340000
C        2.40440000       0.14180000       2.57500000
O        0.97650000       0.00220000       2.45140000
C        0.71460000      -0.72690000       1.25670000
C        0.08300000      -2.07380000       1.58900000
H        0.92370000       1.92720000       0.33480000
H       -0.35390000       1.90700000      -0.89430000
H       -0.76600000       1.78880000       0.82680000
H       -0.90390000      -0.46890000      -0.30110000
H        1.06090000      -1.51510000      -1.35030000
H        1.72740000       0.11970000      -1.59200000
H        3.92100000       0.24020000       0.84870000
H        2.78500000      -0.54210000       3.35090000
H        2.63030000       1.16510000       2.90230000
H       -0.88670000      -1.92000000       2.07360000
H       -0.07900000      -2.67310000       0.68740000
H        0.72140000      -2.64190000       2.27210000
