18
Properties=species:S:1:pos:R:3 gdb_67689=T pbc="F F F"
C       -0.00130000       1.55880000      -0.02720000
C        0.03760000       0.06470000      -0.03200000
C        0.66360000      -0.89640000      -0.97120000
C        1.59080000      -1.85040000      -0.21760000
C        1.29930000      -1.48990000       1.27180000
N        0.02040000      -0.73710000       1.23640000
C       -1.01310000      -1.59090000       0.65490000
O       -1.66950000      -2.44800000       1.16740000
C       -0.87460000      -0.96910000      -0.69020000
H        0.92010000       1.97290000       0.39650000
H       -0.10510000       1.94390000      -1.04600000
H       -0.84170000       1.92460000       0.56980000
H        0.90690000      -0.58520000      -1.98230000
H        1.37370000      -2.89970000      -0.43890000
H        2.63540000      -1.66520000      -0.48570000
H        1.18790000      -2.36220000       1.91830000
H        2.07900000      -0.84690000       1.68990000
H       -1.60170000      -0.86940000      -1.48680000
