14
Properties=species:S:1:pos:R:3 gdb_130060=T pbc="F F F"
N       -0.11360000       1.31590000       0.01600000
C       -0.04720000      -0.05520000       0.04650000
N       -1.08890000      -0.86150000      -0.14200000
N       -0.51690000      -2.05510000       0.05460000
C       -1.24020000      -3.31510000      -0.05150000
C       -1.61710000      -3.64880000      -1.42030000
C       -1.93670000      -3.94380000      -2.53870000
N        0.77010000      -2.00110000       0.33800000
N        1.09590000      -0.73150000       0.33980000
H        0.77880000       1.75710000      -0.14970000
H       -0.85850000       1.68740000      -0.55380000
H       -0.57270000      -4.07270000       0.36740000
H       -2.12810000      -3.24790000       0.58540000
H       -2.21660000      -4.20030000      -3.53080000
