18
Properties=species:S:1:pos:R:3 gdb_46836=T pbc="F F F"
N       -0.08190000       1.28210000       0.29300000
C       -0.02450000       0.05740000      -0.02150000
O        1.17130000      -0.55240000      -0.29320000
C        1.25610000      -1.85150000      -0.91510000
C       -0.04620000      -2.66210000      -0.84790000
C       -1.18130000      -1.72200000      -1.30220000
C       -1.25850000      -0.82310000      -0.05020000
C       -1.11400000      -1.86120000       1.06340000
C       -0.42980000      -2.90830000       0.60600000
H        0.85460000       1.69290000       0.27030000
H        1.54490000      -1.69540000      -1.96270000
H        2.07810000      -2.36750000      -0.40820000
H        0.06720000      -3.56650000      -1.45230000
H       -0.95040000      -1.17220000      -2.22050000
H       -2.11800000      -2.26790000      -1.43990000
H       -2.13920000      -0.18670000       0.02070000
H       -1.45380000      -1.69060000       2.07700000
H       -0.10380000      -3.76960000       1.17640000
