19
Properties=species:S:1:pos:R:3 gdb_68603=T pbc="F F F"
C       -0.04180000       1.52020000       0.05170000
C       -0.01210000       0.01430000       0.01390000
C        0.32740000      -0.82850000      -1.27100000
C       -0.34900000      -1.95180000      -0.44500000
O        0.53810000      -2.13030000       0.67050000
C        0.82000000      -0.75950000       1.04980000
C       -1.29370000      -0.85580000       0.06150000
C       -2.52910000      -0.82390000       0.82730000
O       -2.48990000      -0.47610000      -0.57950000
H        0.93920000       1.94380000      -0.18840000
H       -0.76770000       1.90690000      -0.66970000
H       -0.32760000       1.88610000       1.04470000
H       -0.25980000      -0.51690000      -2.13630000
H        1.38020000      -0.97050000      -1.52650000
H       -0.66790000      -2.91340000      -0.84100000
H        1.89680000      -0.56300000       0.97790000
H        0.49330000      -0.58100000       2.08180000
H       -3.05210000      -1.75020000       1.05890000
H       -2.73750000       0.00870000       1.49760000
