19
Properties=species:S:1:pos:R:3 gdb_87798=T pbc="F F F"
C        0.05410000       1.59290000       0.09250000
C        0.16820000       0.08530000       0.06030000
C        1.45510000      -0.66640000      -0.08930000
O        2.55910000       0.00370000       0.54990000
C        1.89220000      -0.13830000       1.82180000
C        2.71090000      -0.46430000       3.03400000
C        2.13770000       0.93470000       2.82880000
O        2.96730000       1.99030000       2.44850000
C        0.67650000      -0.78270000       1.20540000
H        0.92220000       2.05260000       0.56830000
H       -0.02330000       1.99290000      -0.92420000
H       -0.83850000       1.90530000       0.64420000
H       -0.64020000      -0.41790000      -0.46900000
H        1.70340000      -1.37800000      -0.86760000
H        2.27130000      -1.09190000       3.80330000
H        3.77700000      -0.59420000       2.87730000
H        1.33230000       1.25480000       3.48360000
H        3.20870000       1.83260000       1.52520000
H        0.12810000      -1.61540000       1.62430000
