19
Properties=species:S:1:pos:R:3 gdb_32918=T pbc="F F F"
C        0.03730000       1.35950000       0.23750000
C       -0.18220000      -0.08440000      -0.19960000
N        0.90550000      -0.52190000      -1.08030000
C        0.92630000      -1.83910000      -1.50800000
C        1.24690000      -2.42580000      -2.69810000
C        1.20480000      -3.84150000      -2.45910000
C        0.84410000      -4.02490000      -1.16660000
N        0.61290000      -5.17130000      -0.40770000
O        0.67120000      -2.77820000      -0.56360000
H        0.99680000       1.46730000       0.75100000
H        0.03500000       2.03930000      -0.62270000
H       -0.76010000       1.68090000       0.91350000
H       -0.18550000      -0.74540000       0.67080000
H       -1.16790000      -0.18860000      -0.68320000
H        1.04750000       0.10930000      -1.85820000
H        1.48650000      -1.91940000      -3.61960000
H        1.40920000      -4.63190000      -3.16380000
H        1.14070000      -5.17010000       0.45960000
H       -0.36770000      -5.29470000      -0.17200000
