15
Properties=species:S:1:pos:R:3 gdb_45874=T pbc="F F F"
O        0.02720000      -0.05090000      -0.04320000
C        0.02840000       1.15520000      -0.01600000
N       -1.13440000       1.90290000       0.04880000
C       -1.16530000       3.29730000      -0.01250000
N       -0.20080000       4.04340000      -0.35630000
C        1.02610000       3.36300000      -0.75040000
C        1.29180000       2.03340000       0.00200000
C        1.68820000       2.25400000       1.38990000
C        2.00200000       2.44930000       2.53320000
H       -1.99070000       1.38310000       0.17970000
H       -2.12820000       3.73060000       0.25330000
H        0.97090000       3.15380000      -1.82870000
H        1.87120000       4.03860000      -0.59790000
H        2.07260000       1.46440000      -0.51250000
H        2.28850000       2.61560000       3.54230000
