17
Properties=species:S:1:pos:R:3 gdb_31748=T pbc="F F F"
C        0.06940000       1.36610000       0.21240000
O        0.03740000      -0.05180000       0.06590000
C       -1.17860000      -0.61070000      -0.02180000
C       -1.45700000      -1.92880000      -0.19960000
O       -2.82960000      -2.04250000      -0.22330000
C       -3.29110000      -0.78530000      -0.06700000
C       -4.77040000      -0.59600000      -0.03610000
N       -5.38880000      -1.14820000      -1.24830000
N       -2.35600000       0.10840000       0.05940000
H        1.12630000       1.63310000       0.25550000
H       -0.40860000       1.86360000      -0.63720000
H       -0.43450000       1.68200000       1.13120000
H       -0.87990000      -2.82610000      -0.32070000
H       -5.15870000      -1.02890000       0.90330000
H       -4.95240000       0.48080000       0.00400000
H       -5.20380000      -2.14600000      -1.29180000
H       -6.39730000      -1.04700000      -1.18450000
