18
Properties=species:S:1:pos:R:3 gdb_14883=T pbc="F F F"
C        0.08900000      -1.22540000       0.00370000
C       -0.01290000      -0.02430000       0.00290000
C       -0.06420000       1.39880000       0.00100000
C       -1.23700000       2.05420000       0.02090000
C       -1.36350000       3.55190000       0.05490000
C       -0.03790000       4.24690000       0.39610000
C        1.12010000       3.60980000      -0.37970000
C        1.27080000       2.12630000      -0.01960000
H        0.15920000      -2.28460000       0.00600000
H       -2.15790000       1.47760000       0.01330000
H       -1.73440000       3.90320000      -0.92060000
H       -2.14150000       3.83480000       0.77550000
H       -0.10760000       5.31830000       0.18140000
H        0.15420000       4.15150000       1.47260000
H        0.92790000       3.70400000      -1.45650000
H        2.05850000       4.13770000      -0.18000000
H        1.74800000       2.01860000       0.96450000
H        1.93920000       1.62450000      -0.72790000
