14
Properties=species:S:1:pos:R:3 gdb_132293=T pbc="F F F"
N        0.01200000       1.39630000       0.15280000
C       -0.01410000       0.02460000       0.05390000
C       -1.17310000      -0.69720000       0.03450000
C       -1.18160000      -2.12950000      -0.00370000
N       -2.20450000      -2.87790000      -0.01800000
O        0.11430000      -2.74510000      -0.03630000
C        1.20890000      -2.00700000      -0.01940000
F        2.28400000      -2.76360000      -0.05050000
C        1.25460000      -0.66770000       0.02400000
H        0.83590000       1.86560000      -0.18760000
H       -0.84720000       1.88330000      -0.04890000
H       -2.14430000      -0.22050000       0.05220000
H       -1.94430000      -3.86170000      -0.05210000
H        2.20360000      -0.15260000       0.05070000
