14
Properties=species:S:1:pos:R:3 gdb_133279=T pbc="F F F"
C        0.00990000       1.40450000      -0.24590000
N        0.02750000      -0.04250000      -0.17000000
C       -1.06850000      -0.63020000       0.14080000
N       -2.29630000      -0.04010000       0.41960000
N       -3.43570000      -0.70730000       0.74600000
C       -3.31570000      -1.98350000       0.78660000
F       -4.39110000      -2.67810000       1.09830000
N       -2.20060000      -2.74500000       0.54590000
C       -1.13540000      -2.08540000       0.23880000
H        1.00310000       1.76810000      -0.51780000
H       -0.69890000       1.77910000      -1.00450000
H       -0.26340000       1.87470000       0.71450000
H       -2.40710000       0.95990000       0.39200000
H       -0.21380000      -2.62540000       0.03480000
