16
Properties=species:S:1:pos:R:3 gdb_127437=T pbc="F F F"
C       -0.05270000       1.44690000       0.07860000
N       -0.01400000      -0.00930000      -0.00310000
N       -1.17820000      -0.64750000       0.09870000
C       -1.15740000      -1.95290000       0.02690000
C       -2.45480000      -2.69980000       0.13850000
C        0.09720000      -2.62050000      -0.15490000
N        1.23740000      -2.01270000      -0.25550000
C        1.24760000      -0.62230000      -0.18270000
O        2.24290000       0.06410000      -0.26210000
H        0.56170000       1.78750000       0.91550000
H        0.35820000       1.88060000      -0.83630000
H       -1.09200000       1.74040000       0.21490000
H       -2.64790000      -3.29710000      -0.75970000
H       -2.44400000      -3.38980000       0.98970000
H       -3.27730000      -1.99550000       0.27160000
H        0.10800000      -3.71050000      -0.21420000
