21
Properties=species:S:1:pos:R:3 gdb_39261=T pbc="F F F"
C       -0.03860000       1.44860000      -0.05110000
C        1.34530000       0.81030000      -0.01360000
C        2.17560000       0.44890000      -1.23490000
C        2.28680000      -1.10070000      -1.31090000
C        0.90560000      -1.75690000      -1.00050000
C        0.71080000      -2.23780000       0.47590000
C       -0.07420000      -1.06270000       1.14470000
C        0.08710000      -0.02790000       0.05620000
O       -0.10210000      -0.74370000      -1.14860000
H       -0.34460000       2.01170000       0.82420000
H       -0.41410000       1.83590000      -0.99280000
H        1.89300000       0.94370000       0.91580000
H        1.69710000       0.82000000      -2.14460000
H        3.17220000       0.89800000      -1.19310000
H        2.63020000      -1.39960000      -2.30680000
H        3.04240000      -1.45630000      -0.60100000
H        0.68090000      -2.54850000      -1.71820000
H        0.13880000      -3.16810000       0.50960000
H        1.66880000      -2.42230000       0.96880000
H       -1.12400000      -1.32930000       1.30140000
H        0.35100000      -0.75170000       2.10160000
