16
Properties=species:S:1:pos:R:3 gdb_31368=T pbc="F F F"
C       -0.08690000       0.53950000       0.71110000
O        0.18090000       0.81130000      -0.66040000
C        0.66700000      -0.20290000      -1.39680000
C        0.94810000      -1.46940000      -1.03160000
C        1.47600000      -2.41170000      -2.01660000
N        1.74820000      -3.61940000      -1.68440000
N        1.67040000      -1.93210000      -3.34080000
C        1.37810000      -0.71510000      -3.60420000
N        0.88180000       0.19310000      -2.70440000
H       -0.83860000      -0.25080000       0.81290000
H        0.82720000       0.24090000       1.23560000
H       -0.46820000       1.47000000       1.13150000
H        0.79690000      -1.82400000      -0.02330000
H        2.10160000      -4.10720000      -2.51000000
H        1.51770000      -0.32330000      -4.61040000
H        0.66840000       1.14160000      -2.96660000
