18
Properties=species:S:1:pos:R:3 gdb_62128=T pbc="F F F"
O        0.87320000       1.38410000      -0.71190000
C        0.02070000       0.44180000      -0.07650000
C       -0.05180000      -0.84610000      -0.90530000
O       -0.51700000      -0.52570000      -2.21400000
C        0.41410000      -0.38210000      -3.18140000
N        0.10340000       0.17360000      -4.27100000
C        0.57660000       0.21850000       1.31560000
C        0.13470000      -0.86300000       2.20270000
O        1.39990000      -0.93000000       1.54070000
H        0.42310000       1.70210000      -1.50230000
H       -0.99510000       0.85630000       0.02040000
H        0.93640000      -1.31490000      -0.94090000
H       -0.76660000      -1.55680000      -0.48190000
H        1.39210000      -0.80040000      -2.91050000
H        0.90060000       0.16360000      -4.90400000
H        0.95450000       1.13520000       1.76750000
H        0.17680000      -0.71920000       3.28110000
H       -0.60940000      -1.58250000       1.86490000
