21
Properties=species:S:1:pos:R:3 gdb_115753=T pbc="F F F"
C        0.25590000       1.52760000      -0.06810000
O       -0.33090000       0.33900000      -0.54850000
C        0.58190000      -0.52230000      -1.17420000
C        1.58250000      -1.33690000      -0.30560000
C        1.24680000      -2.57690000      -1.18240000
C       -0.03170000      -1.84960000      -1.69200000
C       -1.32220000      -2.25720000      -0.95830000
C       -1.76390000      -3.59650000      -1.32920000
C       -2.10500000      -4.70360000      -1.65130000
H        1.01880000       1.32990000       0.69940000
H        0.72690000       2.10290000      -0.88080000
H       -0.54120000       2.12910000       0.37520000
H        1.10960000       0.00860000      -1.98290000
H        2.62160000      -1.00230000      -0.27190000
H        1.21170000      -1.44310000       0.71780000
H        1.97860000      -2.73410000      -1.97830000
H        1.08780000      -3.52650000      -0.66740000
H       -0.20970000      -1.89400000      -2.76920000
H       -1.17030000      -2.20680000       0.12650000
H       -2.10810000      -1.52680000      -1.18100000
H       -2.42090000      -5.67860000      -1.92790000
