18
Properties=species:S:1:pos:R:3 gdb_18191=T pbc="F F F"
C       -0.43710000      -1.11070000      -0.81040000
C       -0.21350000      -0.01680000      -0.36380000
C        0.05980000       1.30490000       0.18800000
C       -0.30610000       1.43810000       1.69690000
C        0.58430000       2.58290000       2.22620000
C        1.84060000       2.53100000       1.36770000
C        2.47780000       1.18110000       1.13840000
C        1.52630000       1.74500000       0.11510000
H       -0.63300000      -2.07450000      -1.21010000
H       -0.52840000       2.04120000      -0.37730000
H       -1.37290000       1.62450000       1.83890000
H       -0.07840000       0.49900000       2.20810000
H        0.08950000       3.55110000       2.08230000
H        0.78570000       2.48100000       3.29810000
H        2.47380000       3.41050000       1.32630000
H        3.52910000       1.16930000       0.87320000
H        2.16970000       0.33250000       1.74070000
H        1.91490000       2.03310000      -0.85480000
