16
Properties=species:S:1:pos:R:3 gdb_97354=T pbc="F F F"
C        0.06970000       1.44830000      -0.04020000
N        0.04280000       0.00180000      -0.06910000
C        0.46630000      -0.62590000       0.94530000
N        0.55330000      -2.00330000       0.98110000
C       -0.06100000      -2.78590000      -0.08020000
C        0.62170000      -4.06700000      -0.26460000
C        1.18310000      -5.11720000      -0.40980000
C       -1.51170000      -3.00010000       0.15240000
N       -2.63590000      -3.16110000       0.36240000
H        0.70040000       1.82560000      -0.85380000
H       -0.93920000       1.84030000      -0.21170000
H        0.44640000       1.86470000       0.90800000
H        0.83770000      -0.15160000       1.86370000
H        0.60790000      -2.44420000       1.88580000
H        0.02590000      -2.17090000      -0.98500000
H        1.67980000      -6.04630000      -0.54790000
