21
Properties=species:S:1:pos:R:3 gdb_92175=T pbc="F F F"
C       -0.35440000       1.51340000       0.07510000
C        0.03700000       0.03320000      -0.00990000
C        0.76950000      -0.39960000      -1.32070000
C        2.26900000      -0.60430000      -1.05190000
C        2.85200000       0.63500000      -0.31360000
C        2.44510000      -0.05260000       1.00310000
C        2.45400000      -1.41980000       0.29690000
O        1.22290000      -1.84500000       0.88970000
C        0.92400000      -0.43390000       1.14380000
H        0.50960000       2.18280000       0.06090000
H       -1.00110000       1.78970000      -0.76410000
H       -0.90940000       1.71410000       0.99870000
H       -0.88760000      -0.55130000       0.06690000
H        0.33760000      -1.33500000      -1.68690000
H        0.63270000       0.34900000      -2.10930000
H        2.79970000      -0.96470000      -1.93540000
H        3.94370000       0.67530000      -0.38240000
H        2.45360000       1.61850000      -0.57240000
H        2.96210000       0.15500000       1.94010000
H        3.24820000      -2.16740000       0.33860000
H        0.47150000      -0.29170000       2.12960000
