18
Properties=species:S:1:pos:R:3 gdb_31060=T pbc="F F F"
C        0.00340000       1.42790000      -0.07150000
N        0.00150000       0.02060000       0.29550000
C       -1.20740000      -0.67940000       0.13570000
C       -1.31650000      -2.04270000      -0.00280000
O       -0.34570000      -2.99990000      -0.12350000
N       -2.66040000      -2.37200000      -0.04820000
C       -3.40880000      -1.22680000       0.04170000
N       -4.81530000      -1.31450000      -0.06870000
C       -2.54280000      -0.16090000       0.17100000
H        1.01940000       1.81980000       0.02580000
H       -0.35290000       1.62690000      -1.09600000
H       -0.63280000       1.99300000       0.61810000
H        0.75790000      -0.48240000      -0.15130000
H        0.00240000      -3.21130000       0.75160000
H       -3.02430000      -3.26630000      -0.32890000
H       -5.26080000      -1.49250000       0.82780000
H       -5.19670000      -0.44690000      -0.42650000
H       -2.83310000       0.87020000       0.29990000
