20
Properties=species:S:1:pos:R:3 gdb_100710=T pbc="F F F"
C        0.12340000       1.46020000       0.23050000
C        0.02840000      -0.05990000       0.04140000
C       -1.40390000      -0.54910000      -0.03510000
N       -2.19820000      -0.12380000       1.21620000
H       -1.79600000      -0.55900000       2.04940000
H       -2.10190000       0.88970000       1.32700000
H       -3.19010000      -0.36400000       1.16410000
C        0.69090000      -0.49710000      -1.28530000
O       -0.00330000       0.03610000      -2.38450000
C        2.18090000       0.02500000      -1.30740000
O        2.86310000      -0.23540000      -0.30710000
O        2.42130000       0.67780000      -2.35060000
H        1.17690000       1.72690000       0.33400000
H       -0.28410000       1.97660000      -0.64320000
H       -0.37820000       1.83700000       1.13780000
H        0.57930000      -0.57210000       0.83950000
H       -1.91790000      -0.10240000      -0.88910000
H       -1.48420000      -1.63720000      -0.08040000
H        0.69760000      -1.60040000      -1.31730000
H        0.76230000       0.50330000      -2.82250000
