15
Properties=species:S:1:pos:R:3 gdb_42452=T pbc="F F F"
O        0.34880000       0.42750000      -1.02710000
C        0.10930000       1.26550000      -0.19350000
O        1.00610000       1.67850000       0.74140000
C        2.29890000       1.07240000       0.65980000
C        3.16990000       1.78550000      -0.28080000
N        3.86850000       2.34730000      -1.00840000
C       -1.18790000       1.97080000      -0.03600000
C       -1.82500000       2.46100000      -1.30070000
N       -2.37620000       1.31170000      -0.59770000
H        2.72230000       1.12690000       1.66470000
H        2.20930000       0.02880000       0.34770000
H       -1.32900000       2.51290000       0.89160000
H       -2.42080000       3.36740000      -1.25650000
H       -1.27680000       2.29800000      -2.22390000
H       -2.06600000       0.45860000      -1.06220000
