19
Properties=species:S:1:pos:R:3 gdb_13536=T pbc="F F F"
C        0.00020000       1.47900000      -0.20070000
C        0.05560000      -0.02660000       0.12800000
C        0.75280000      -0.24850000       1.40320000
N        1.29140000      -0.41780000       2.41200000
C       -1.33540000      -0.64950000       0.16770000
C       -1.99230000      -1.12170000      -1.10820000
C       -1.58610000      -2.12320000      -0.05310000
C       -0.47750000      -3.12360000      -0.30320000
H        1.00280000       1.91200000      -0.24050000
H       -0.48480000       1.62170000      -1.16990000
H       -0.57560000       2.01870000       0.55630000
H        0.64950000      -0.52580000      -0.64600000
H       -1.98640000      -0.16750000       0.89240000
H       -3.04330000      -0.90510000      -1.26420000
H       -1.39610000      -1.09170000      -2.01620000
H       -2.40170000      -2.52360000       0.54320000
H        0.29550000      -2.72740000      -0.96850000
H        0.00810000      -3.42330000       0.63130000
H       -0.87770000      -4.02570000      -0.77790000
