14
Properties=species:S:1:pos:R:3 gdb_116992=T pbc="F F F"
C       -0.20720000       1.51080000       0.01250000
C       -0.04330000       0.00490000       0.00250000
O       -1.37190000      -0.57770000       0.01240000
C       -1.41670000      -1.91170000       0.00530000
O       -0.46940000      -2.65580000      -0.00830000
C       -2.79220000      -2.38100000       0.01610000
C       -3.90300000      -2.85490000       0.02380000
C       -5.16520000      -3.37460000       0.03310000
N       -6.24000000      -3.81440000       0.04090000
H        0.77850000       1.98480000       0.00550000
H       -0.75990000       1.85010000      -0.86750000
H       -0.74250000       1.84030000       0.90690000
H        0.48300000      -0.35110000      -0.88810000
H        0.50040000      -0.36100000       0.87860000
