19
Properties=species:S:1:pos:R:3 gdb_31700=T pbc="F F F"
C        0.01300000       1.54080000       0.22820000
C       -0.04070000       0.04220000      -0.11600000
C       -1.42770000      -0.49700000      -0.19850000
C       -2.16050000      -1.02890000      -1.21400000
C       -3.44040000      -1.35360000      -0.65560000
O       -4.43820000      -1.90920000      -1.37890000
C       -5.62810000      -2.16660000      -0.65670000
C       -3.39850000      -0.99550000       0.66020000
O       -2.16410000      -0.46920000       0.94540000
H        1.04930000       1.88510000       0.29680000
H       -0.49630000       2.13540000      -0.53630000
H       -0.47600000       1.73480000       1.18660000
H        0.44920000      -0.14220000      -1.07730000
H        0.52430000      -0.52160000       0.63780000
H       -1.84880000      -1.18160000      -2.23470000
H       -6.33460000      -2.61110000      -1.35920000
H       -5.44510000      -2.86580000       0.17060000
H       -6.05210000      -1.23870000      -0.24900000
H       -4.09580000      -1.04110000       1.47690000
