16
Properties=species:S:1:pos:R:3 gdb_126440=T pbc="F F F"
C        0.10850000       1.52770000       0.13270000
C       -0.06330000       0.01230000      -0.07220000
C        0.68720000      -0.50250000      -1.25810000
N        0.09900000      -0.78280000      -2.42040000
N        1.10600000      -1.18180000      -3.19170000
N        2.30890000      -1.19530000      -2.64920000
C        2.07710000      -0.76050000      -1.39950000
C        3.09690000      -0.61270000      -0.43120000
C        3.93180000      -0.47300000       0.42430000
H        1.16150000       1.78490000       0.28010000
H       -0.25850000       2.08250000      -0.73580000
H       -0.44940000       1.86130000       1.01270000
H        0.28420000      -0.51520000       0.82320000
H       -1.12160000      -0.23130000      -0.20300000
H        0.95730000      -1.47160000      -4.14500000
H        4.67830000      -0.35450000       1.17020000
