19
Properties=species:S:1:pos:R:3 gdb_15995=T pbc="F F F"
O        0.35480000       0.38290000       0.92550000
C       -0.21150000       0.31330000      -0.38150000
C       -1.51590000      -0.44530000      -0.26480000
C       -2.27420000      -0.84980000      -1.56390000
C       -2.54590000      -2.25520000      -0.94690000
C       -1.47680000      -1.93780000       0.10300000
C       -0.27470000      -2.72700000       0.45390000
N       -1.37790000      -2.53980000       1.42380000
H        1.19530000       0.84690000       0.86990000
H       -0.39160000       1.32070000      -0.79000000
H        0.46210000      -0.21280000      -1.07620000
H       -2.17910000       0.09420000       0.42240000
H       -3.14280000      -0.24690000      -1.83480000
H       -1.60240000      -0.90250000      -2.42600000
H       -3.54200000      -2.33160000      -0.50110000
H       -2.37990000      -3.12400000      -1.58820000
H       -0.16460000      -3.74180000       0.07930000
H        0.65370000      -2.19270000       0.63110000
H       -1.10430000      -1.82380000       2.09430000
