16
Properties=species:S:1:pos:R:3 gdb_28082=T pbc="F F F"
O        0.07840000       1.36690000       0.17470000
C        0.05750000       0.02220000      -0.00040000
C        0.07920000      -0.79060000      -1.10820000
C        0.01800000      -2.14120000      -0.62790000
C        0.07100000      -3.39010000      -1.46220000
C        1.50260000      -3.88320000      -1.60650000
O        1.86910000      -5.00740000      -1.38150000
C       -0.02880000      -2.08830000       0.74420000
N       -0.00670000      -0.75670000       1.11600000
H        0.12980000       1.78480000      -0.69000000
H        0.12020000      -0.47000000      -2.13820000
H       -0.52600000      -4.20190000      -1.03790000
H       -0.31240000      -3.18270000      -2.47070000
H        2.21950000      -3.09420000      -1.93080000
H       -0.07880000      -2.87140000       1.48250000
H       -0.05110000      -0.39590000       2.05310000
