15
Properties=species:S:1:pos:R:3 gdb_125066=T pbc="F F F"
C       -0.43980000       1.02850000       1.04130000
C       -0.18370000      -0.14490000       0.16620000
C       -0.96940000      -0.90640000      -0.65320000
N       -0.14590000      -1.84810000      -1.22950000
N        1.03630000      -1.72040000      -0.82300000
O        1.06180000      -0.62150000       0.09020000
C       -2.40810000      -0.85110000      -0.98120000
C       -3.46640000      -0.95080000       0.04030000
O       -3.12940000       0.30610000      -0.55120000
H       -0.24870000       0.78010000       2.09060000
H        0.22430000       1.85640000       0.77400000
H       -1.47520000       1.34780000       0.92480000
H       -2.64450000      -1.19230000      -1.98820000
H       -4.44200000      -1.34780000      -0.23430000
H       -3.18480000      -1.06660000       1.08530000
