21
Properties=species:S:1:pos:R:3 gdb_77979=T pbc="F F F"
C       -0.25700000       1.60550000       0.09190000
C        0.01060000       0.09130000       0.02560000
C        0.85110000      -0.36090000      -1.15660000
C        1.84030000      -1.18370000      -0.79370000
C        1.91260000      -1.37470000       0.68980000
C        2.28990000      -2.72240000       1.25780000
C        2.22430000      -0.08710000       1.42760000
O        2.83240000       1.01990000       0.83230000
C        0.77850000      -0.47800000       1.22430000
H        0.67470000       2.16250000       0.21080000
H       -0.76420000       1.95340000      -0.81460000
H       -0.90100000       1.84280000       0.94450000
H       -0.96590000      -0.41220000      -0.04100000
H        0.63850000      -0.04240000      -2.17210000
H        2.54630000      -1.65510000      -1.47040000
H        3.30200000      -3.01320000       0.95170000
H        2.26940000      -2.70770000       2.35200000
H        1.60160000      -3.50670000       0.92190000
H        2.60240000      -0.20800000       2.43890000
H        2.74340000       0.91580000      -0.12440000
H        0.21250000      -0.77170000       2.10250000
