20
Properties=species:S:1:pos:R:3 gdb_46386=T pbc="F F F"
O       -0.00890000       0.07030000      -0.41540000
C       -0.03990000       1.21260000      -0.06890000
C       -1.12920000       2.18530000       0.41160000
N       -0.04290000       3.11010000       0.83140000
C        1.01560000       2.31340000       0.14090000
C        2.25590000       1.97500000       0.96400000
C        3.19670000       3.14920000       1.13670000
C        2.92200000       4.19940000       2.18600000
C        4.08030000       3.24750000       2.35410000
H       -1.76290000       2.53150000      -0.41740000
H       -1.77590000       1.83520000       1.22350000
H       -0.14480000       4.05430000       0.48010000
H        1.31480000       2.72910000      -0.83540000
H        1.92980000       1.61250000       1.94590000
H        2.77350000       1.14250000       0.46980000
H        3.63150000       3.51030000       0.20690000
H        3.13980000       5.23560000       1.95100000
H        2.04950000       4.05810000       2.81360000
H        3.99320000       2.46930000       3.10540000
H        5.08660000       3.63240000       2.23090000
