16
Properties=species:S:1:pos:R:3 gdb_80193=T pbc="F F F"
O       -0.20120000       1.45630000       0.10350000
C       -0.07550000       0.06340000       0.06280000
C       -0.50200000      -0.78550000       1.25120000
N       -1.23850000      -0.12870000       2.29010000
C       -2.37070000       0.51570000       1.83700000
O       -3.01830000       1.32760000       2.45130000
C       -2.63570000       0.02520000       0.38420000
O       -3.02480000       1.06280000      -0.47720000
C       -1.35910000      -0.72000000       0.00170000
H        0.45340000       1.81830000       0.71030000
H        0.75680000      -0.30810000      -0.53350000
H        0.05990000      -1.66950000       1.53070000
H       -0.79290000       0.21230000       3.12920000
H       -3.47710000      -0.67600000       0.41360000
H       -2.31880000       1.72080000      -0.45320000
H       -1.42620000      -1.55710000      -0.68130000
