16
Properties=species:S:1:pos:R:3 gdb_14465=T pbc="F F F"
C       -0.00570000       1.47160000      -0.04380000
C        0.00950000      -0.02000000       0.01750000
O        0.17380000      -0.69140000      -1.22700000
C        0.05980000      -2.02880000      -0.76010000
C        1.15260000      -2.11900000       0.32780000
C        0.62980000      -0.91290000       1.09330000
C       -0.87500000      -0.93910000       0.82580000
O       -1.15160000      -2.04740000      -0.01120000
H        0.95490000       1.86120000      -0.39610000
H       -0.78900000       1.82180000      -0.72330000
H       -0.19880000       1.88950000       0.94830000
H        0.02970000      -2.73880000      -1.58180000
H        1.09910000      -3.05430000       0.88910000
H        2.15330000      -1.97620000      -0.08510000
H        1.06570000      -0.52890000       2.00470000
H       -1.66740000      -0.66010000       1.50450000
