19
Properties=species:S:1:pos:R:3 gdb_36873=T pbc="F F F"
C       -0.38470000       1.10580000      -0.23420000
C        1.02920000       1.17290000       0.28750000
C        0.38020000      -0.16060000       0.03190000
N        0.02020000      -0.94350000       1.17600000
C       -1.00090000      -1.84610000       1.09950000
N       -1.86740000      -1.96000000       0.17110000
C       -2.78760000      -3.01380000       0.60700000
C       -2.17010000      -3.56340000       1.92290000
O       -1.06540000      -2.67410000       2.18490000
H       -1.18670000       1.34400000       0.45330000
H       -0.57470000       1.37020000      -1.26760000
H        1.82180000       1.48710000      -0.38180000
H        1.16690000       1.46740000       1.32200000
H        0.70930000      -0.72410000      -0.83910000
H        0.76240000      -1.21100000       1.80490000
H       -3.79310000      -2.60440000       0.76760000
H       -2.87810000      -3.79220000      -0.15890000
H       -2.84860000      -3.52950000       2.77930000
H       -1.77760000      -4.58080000       1.82340000
