20
Properties=species:S:1:pos:R:3 gdb_5867=T pbc="F F F"
C       -0.06960000       1.56060000       0.07370000
C        0.02590000       0.02600000       0.05300000
C        0.68940000      -0.48160000       1.35080000
C       -1.38540000      -0.56930000      -0.06800000
N        0.74120000      -0.39980000      -1.17190000
C        2.13970000      -0.00470000      -1.29600000
C        2.69870000      -0.50690000      -2.55510000
N        3.14970000      -0.92130000      -3.53440000
H        0.90430000       2.03420000       0.23400000
H       -0.48200000       1.93040000      -0.86920000
H       -0.72180000       1.88550000       0.88960000
H        0.09960000      -0.19300000       2.22670000
H        0.76910000      -1.57440000       1.34710000
H        1.69350000      -0.06740000       1.48670000
H       -1.86920000      -0.22550000      -0.98610000
H       -1.34740000      -1.66460000      -0.09290000
H       -2.00390000      -0.27890000       0.78620000
H        0.67500000      -1.40890000      -1.26200000
H        2.20990000       1.08840000      -1.31210000
H        2.80170000      -0.34870000      -0.48220000
