25
Properties=species:S:1:pos:R:3 gdb_52649=T pbc="F F F"
C       -0.07330000       1.51150000       0.08590000
C       -0.04690000       0.05640000       0.01800000
C       -0.01830000      -1.14760000      -0.02980000
C       -0.02740000      -2.61240000      -0.08130000
C       -1.48110000      -3.12260000       0.03170000
C        0.77000000      -3.16680000      -1.31680000
C        2.22420000      -2.66780000      -1.22430000
C        0.78040000      -4.70630000      -1.28090000
C        0.15200000      -2.68620000      -2.64140000
H        0.43920000       1.96120000      -0.77180000
H       -1.10060000       1.89270000       0.09240000
H        0.42020000       1.87790000       0.99320000
H        0.51020000      -2.97660000       0.80700000
H       -2.08070000      -2.81140000      -0.82780000
H       -1.51700000      -4.21220000       0.10560000
H       -1.94990000      -2.70760000       0.92780000
H        2.70300000      -3.01590000      -0.30170000
H        2.81410000      -3.04300000      -2.06740000
H        2.26990000      -1.57570000      -1.23420000
H       -0.21270000      -5.13230000      -1.44930000
H        1.43900000      -5.09700000      -2.06380000
H        1.15170000      -5.08080000      -0.31980000
H        0.11210000      -1.59380000      -2.68250000
H        0.75050000      -3.03650000      -3.48920000
H       -0.86450000      -3.06800000      -2.77910000
