20
Properties=species:S:1:pos:R:3 gdb_107539=T pbc="F F F"
C       -0.29830000       1.47830000       0.11620000
C       -0.03710000      -0.03340000       0.05820000
C        0.76480000      -0.48330000      -1.13110000
C        0.22380000      -0.71270000      -2.52050000
C        0.89170000      -1.85430000      -1.79030000
C        2.41620000      -1.68160000      -1.79780000
N        2.22850000      -0.34470000      -1.20180000
C        3.00420000       0.74960000      -1.42750000
O        4.13410000       0.70900000      -1.86770000
H        0.63270000       2.04260000       0.22800000
H       -0.79530000       1.82720000      -0.79460000
H       -0.93820000       1.72730000       0.96810000
H        0.47280000      -0.35940000       0.97280000
H       -0.99590000      -0.56500000       0.02780000
H       -0.85720000      -0.78710000      -2.58990000
H        0.70300000      -0.25270000      -3.38070000
H        0.37050000      -2.76650000      -1.53440000
H        2.94460000      -2.36200000      -1.12370000
H        2.91990000      -1.66670000      -2.76920000
H        2.50160000       1.69070000      -1.12660000
