19
Properties=species:S:1:pos:R:3 gdb_61182=T pbc="F F F"
C       -0.10550000       1.60210000      -0.00050000
C        0.00920000       0.07380000       0.00500000
C        0.69340000      -0.46370000      -1.27590000
C       -0.03990000      -0.14050000      -2.49270000
C       -0.66130000       0.12840000      -3.48610000
C        0.76730000      -0.46140000       1.24830000
N        2.14440000       0.03610000       1.29970000
C        0.00270000      -0.17390000       2.48270000
N       -0.56160000       0.07310000       3.46150000
H        0.87920000       2.07560000      -0.08180000
H       -0.69520000       1.92890000      -0.85990000
H       -0.59350000       1.96650000       0.90830000
H       -1.00100000      -0.34880000       0.05020000
H        1.71200000      -0.06360000      -1.32800000
H        0.79860000      -1.55400000      -1.19940000
H       -1.19990000       0.36010000      -4.37130000
H        0.82230000      -1.55310000       1.15930000
H        2.15090000       1.02080000       1.54730000
H        2.66220000      -0.44600000       2.02760000
