20
Properties=species:S:1:pos:R:3 gdb_122655=T pbc="F F F"
C        0.12550000       1.15640000       0.01950000
C        0.63160000      -0.27540000       0.18580000
O        1.25110000      -0.80010000      -0.97660000
C        0.36110000      -1.16760000      -2.01000000
C        1.18520000      -1.86150000      -3.09030000
C        1.85020000      -3.17760000      -2.60890000
O        1.28970000      -4.19370000      -3.48240000
C        0.45710000      -3.52860000      -4.31300000
N        0.31840000      -2.27290000      -4.21220000
H        0.93790000       1.81290000      -0.30600000
H       -0.68440000       1.22190000      -0.71290000
H       -0.25920000       1.53000000       0.97420000
H        1.40060000      -0.31010000       0.96470000
H       -0.19130000      -0.93600000       0.50430000
H       -0.41290000      -1.85670000      -1.63060000
H       -0.15170000      -0.30010000      -2.44760000
H        1.93180000      -1.14670000      -3.45280000
H        2.93590000      -3.19140000      -2.72590000
H        1.59910000      -3.43030000      -1.57570000
H       -0.04860000      -4.15910000      -5.03640000
