16
Properties=species:S:1:pos:R:3 gdb_96646=T pbc="F F F"
C       -0.00930000       1.40580000      -0.28820000
N       -0.07430000      -0.03890000      -0.39180000
C       -1.11140000      -0.63810000       0.02970000
N       -2.29570000      -0.08390000       0.47980000
N       -1.12590000      -2.06640000       0.03240000
C       -2.27160000      -2.74880000      -0.43520000
O       -2.43060000      -3.93560000      -0.42080000
C        0.08730000      -2.72540000       0.37340000
O        0.26950000      -3.90590000       0.31380000
H        1.02770000       1.72780000      -0.40860000
H       -0.59580000       1.89170000      -1.08080000
H       -0.36790000       1.79450000       0.67990000
H       -2.30500000       0.91870000       0.58200000
H       -2.79050000      -0.57760000       1.20730000
H       -3.01720000      -2.03380000      -0.82500000
H        0.83500000      -1.98710000       0.70040000
