15
Properties=species:S:1:pos:R:3 gdb_98647=T pbc="F F F"
C       -0.31450000       1.39190000      -0.38180000
O       -0.23900000       0.11410000      -1.03390000
C        0.91950000      -0.54100000      -0.88730000
O        1.85980000      -0.15090000      -0.24400000
C        0.89100000      -1.88090000      -1.59880000
C       -0.19320000      -2.88190000      -1.13730000
C       -0.71730000      -2.70630000      -2.56330000
O       -1.60420000      -3.11330000      -3.23550000
O        0.27440000      -1.82070000      -2.92260000
H       -0.18220000       1.27900000       0.69690000
H        0.45950000       2.06010000      -0.76600000
H       -1.30580000       1.78110000      -0.61040000
H        1.90800000      -2.26710000      -1.65850000
H        0.15650000      -3.88760000      -0.90250000
H       -0.87510000      -2.52960000      -0.36310000
