21
Properties=species:S:1:pos:R:3 gdb_122365=T pbc="F F F"
C        0.16580000       1.47070000       0.18940000
C       -0.17350000       0.01990000      -0.16070000
C        0.75820000      -0.55540000      -1.21740000
O        0.37810000      -1.89910000      -1.47560000
C        1.11680000      -2.50820000      -2.48270000
C        2.47020000      -3.24030000      -2.18390000
C        1.69950000      -4.30440000      -1.36840000
C        0.93030000      -4.02850000      -2.68290000
O        2.21930000      -4.02460000      -3.41230000
H        1.18550000       1.55990000       0.57990000
H        0.08910000       2.12260000      -0.68780000
H       -0.51560000       1.85940000       0.95130000
H       -0.11580000      -0.61080000       0.73390000
H       -1.20330000      -0.05350000      -0.52830000
H        0.70090000       0.03560000      -2.14660000
H        1.80400000      -0.51400000      -0.87160000
H        1.13380000      -1.93090000      -3.41570000
H        3.47560000      -2.84310000      -2.04230000
H        2.18200000      -5.28070000      -1.31310000
H        1.23100000      -3.98980000      -0.43530000
H        0.09680000      -4.56810000      -3.13250000
