20
Properties=species:S:1:pos:R:3 gdb_59491=T pbc="F F F"
C        0.24290000       0.72430000       1.72590000
C       -0.35990000      -0.68810000       1.76210000
C       -0.89220000      -1.04810000       3.15760000
C       -1.47140000      -0.79660000       0.73950000
O       -1.11230000      -0.85020000      -0.65240000
C       -1.77400000      -1.97560000      -0.08600000
C       -0.97060000      -3.26900000      -0.05340000
C       -1.52610000      -4.22860000       0.89920000
N       -1.98040000      -4.96710000       1.66300000
H        1.07430000       0.80980000       2.43230000
H        0.61430000       0.96560000       0.72590000
H       -0.50640000       1.47610000       2.00010000
H        0.43180000      -1.39680000       1.49360000
H       -1.69940000      -0.36900000       3.45580000
H       -1.28350000      -2.06950000       3.19030000
H       -0.09790000      -0.96440000       3.90540000
H       -2.31280000      -0.12650000       0.93620000
H       -2.80420000      -2.11270000      -0.41790000
H       -0.97000000      -3.71990000      -1.05270000
H        0.07200000      -3.06480000       0.20260000
