19
Properties=species:S:1:pos:R:3 gdb_71016=T pbc="F F F"
O       -0.03890000       1.41920000       0.09520000
C       -0.00280000       0.03390000       0.01240000
C        0.33340000      -0.87200000       1.30480000
C       -0.40760000      -1.88140000       0.41630000
C       -1.34060000      -0.72930000      -0.03760000
O       -0.83720000      -3.24660000       0.38000000
C       -0.38400000      -3.29580000      -1.02090000
C        0.55150000      -2.08820000      -0.74210000
C        0.73250000      -0.62590000      -1.21090000
H        0.86670000       1.74670000       0.12180000
H        1.37520000      -1.08770000       1.55620000
H       -0.21220000      -0.47890000       2.16490000
H       -2.03140000      -0.42060000       0.74890000
H       -1.85180000      -0.80040000      -1.00050000
H        0.08690000      -4.25370000      -1.25420000
H       -1.21790000      -3.10800000      -1.70690000
H        1.49730000      -2.49510000      -0.37440000
H        0.23040000      -0.34690000      -2.14140000
H        1.78710000      -0.34460000      -1.29570000
