16
Properties=species:S:1:pos:R:3 gdb_124079=T pbc="F F F"
C       -0.02850000       1.38710000      -0.34220000
O        1.32220000       1.64530000       0.08380000
C        1.45220000       0.32030000       0.63150000
C        0.06900000      -0.10670000       0.07000000
C       -0.94440000      -0.65690000       1.00820000
N       -1.59690000      -1.79600000       0.75040000
N       -2.39220000      -1.94100000       1.80140000
N       -2.32600000      -1.00130000       2.73330000
C       -1.40650000      -0.16740000       2.24860000
H       -0.76220000       1.96850000       0.23170000
H       -0.17200000       1.58470000      -1.41050000
H        2.32170000      -0.21170000       0.22940000
H        1.51300000       0.32940000       1.72790000
H        0.15190000      -0.77460000      -0.78780000
H       -3.01590000      -2.72720000       1.88730000
H       -1.12460000       0.71960000       2.79340000
