18
Properties=species:S:1:pos:R:3 gdb_12792=T pbc="F F F"
C       -0.00750000       1.45640000      -0.06220000
C       -0.04420000      -0.04530000       0.06210000
C       -0.83860000      -0.68890000       1.16150000
C        0.69920000      -0.73590000       1.18620000
C        1.36690000      -2.00590000       0.82410000
C        1.10190000      -2.61710000      -0.33100000
C        0.13670000      -2.02200000      -1.31950000
O        0.02940000      -0.60710000      -1.22120000
H        0.90450000       1.77280000      -0.57770000
H       -0.86630000       1.81400000      -0.63940000
H       -0.03280000       1.92830000       0.92350000
H       -1.34040000      -0.04080000       1.87230000
H       -1.34530000      -1.62900000       0.97600000
H        1.19630000      -0.11500000       1.92450000
H        2.08420000      -2.42490000       1.52380000
H        1.57450000      -3.55700000      -0.59830000
H        0.47020000      -2.21240000      -2.34560000
H       -0.86020000      -2.48740000      -1.22500000
