16
Properties=species:S:1:pos:R:3 gdb_44888=T pbc="F F F"
O       -0.02210000       0.07850000       0.04820000
C        0.05910000       1.26690000       0.03230000
O       -1.02990000       2.11900000       0.05050000
C       -0.38890000       3.43130000       0.01950000
C        0.68750000       3.24430000      -1.07430000
C        1.24510000       2.22660000      -0.01350000
C        0.74150000       3.25270000       1.03700000
C        1.44800000       4.26240000       1.84010000
N        0.73120000       3.12420000       2.46920000
H       -1.14550000       4.21260000       0.03740000
H        0.34700000       2.84370000      -2.03040000
H        1.33370000       4.11280000      -1.20650000
H        2.23970000       1.79260000      -0.03120000
H        2.52890000       4.23060000       1.94370000
H        1.01330000       5.25710000       1.91030000
H       -0.15880000       3.41600000       2.86580000
