19
Properties=species:S:1:pos:R:3 gdb_83112=T pbc="F F F"
O        0.39100000       1.19560000      -0.00920000
C        0.06070000      -0.16010000       0.06780000
C       -1.39880000      -0.56270000       0.16490000
C       -2.45260000       0.53130000       0.22600000
C       -3.49400000       0.52740000      -0.86350000
C       -3.25100000       0.49990000      -2.18150000
C       -1.95410000       0.40900000      -2.84580000
C       -0.81880000      -0.14490000      -2.38730000
C       -0.61120000      -0.85090000      -1.10040000
H        0.33870000       1.46560000      -0.93330000
H        0.79470000      -0.72390000       0.63690000
H       -1.61410000      -1.43630000       0.77260000
H       -2.94610000       0.48110000       1.20140000
H       -1.93260000       1.49940000       0.20680000
H       -4.52940000       0.62080000      -0.54400000
H       -4.10180000       0.59060000      -2.85400000
H       -1.93050000       0.81100000      -3.85770000
H        0.03900000      -0.15820000      -3.06000000
H       -0.30420000      -1.88760000      -1.23340000
