20
Properties=species:S:1:pos:R:3 gdb_109516=T pbc="F F F"
C        0.35810000       1.11880000       0.36300000
O       -0.32790000       0.06670000      -0.30100000
C        0.41490000      -0.53630000      -1.29240000
C        1.39900000      -1.66590000      -0.92830000
C        1.55940000      -2.04810000       0.44160000
N        1.70240000      -2.35670000       1.54850000
C        0.07350000      -1.93980000      -1.66980000
C       -1.04130000      -2.64260000      -0.92140000
C        0.20860000      -2.32780000      -3.12980000
H        1.25250000       0.74990000       0.87950000
H        0.65030000       1.90880000      -0.34390000
H       -0.33620000       1.53310000       1.09600000
H        0.76270000       0.13860000      -2.07770000
H        2.30970000      -1.73200000      -1.51550000
H       -1.10880000      -2.30920000       0.11420000
H       -2.00160000      -2.43670000      -1.40600000
H       -0.88330000      -3.72590000      -0.92950000
H        0.42000000      -3.39790000      -3.22930000
H       -0.72120000      -2.11670000      -3.66930000
H        1.01550000      -1.77880000      -3.62510000
