15
Properties=species:S:1:pos:R:3 gdb_21276=T pbc="F F F"
C        0.00400000       1.37730000       0.09880000
O       -0.02340000      -0.05420000       0.05830000
C       -1.24130000      -0.59310000       0.01610000
N       -2.40550000       0.02420000       0.00770000
C       -3.27620000      -1.02740000      -0.04130000
N       -2.72820000      -2.22530000      -0.06300000
N       -1.39090000      -1.93350000      -0.02500000
C       -0.38590000      -2.97150000      -0.03260000
H        1.05890000       1.65040000       0.12820000
H       -0.47650000       1.79600000      -0.78950000
H       -0.51310000       1.74640000       0.98850000
H       -4.34780000      -0.89550000      -0.06130000
H       -0.46970000      -3.57260000      -0.94190000
H        0.59560000      -2.49790000       0.00240000
H       -0.50850000      -3.62330000       0.83640000
