16
Properties=species:S:1:pos:R:3 gdb_1986=T pbc="F F F"
C        0.03310000       1.44840000      -0.08430000
C        0.26590000      -0.05520000      -0.14740000
O        1.01730000      -0.63540000       0.61120000
N       -0.44690000      -0.70660000      -1.12230000
C       -0.46170000      -2.13520000      -1.22310000
C       -0.60470000      -2.74100000      -2.59350000
C        0.70930000      -2.83340000      -1.85830000
H       -0.33080000       1.86870000      -1.02610000
H       -0.70130000       1.66720000       0.69810000
H        0.96910000       1.93490000       0.19420000
H       -1.15410000      -0.19260000      -1.62310000
H       -0.94230000      -2.64870000      -0.39380000
H       -1.21520000      -3.63100000      -2.69400000
H       -0.65990000      -2.06110000      -3.43720000
H        1.52450000      -2.20870000      -2.20190000
H        1.01090000      -3.78790000      -1.44370000
