18
Properties=species:S:1:pos:R:3 gdb_33373=T pbc="F F F"
C        0.05810000      -3.80560000      -0.09830000
C        0.04030000      -2.59830000      -0.07950000
C        0.01810000      -1.23790000      -0.05660000
C        0.00200000      -0.02820000      -0.03900000
C       -0.02580000       1.42870000       0.00960000
N        1.30580000       2.00110000       0.10120000
C        2.08190000       1.80300000       1.34480000
C        2.61020000       3.25030000       1.19610000
C        1.41310000       3.46830000       0.24020000
H        0.07620000      -4.86690000      -0.11560000
H       -0.50260000       1.81420000      -0.90210000
H       -0.67350000       1.74190000       0.85560000
H        1.44310000       1.68770000       2.23620000
H        2.79680000       0.97610000       1.31380000
H        2.64740000       3.86330000       2.09650000
H        3.57120000       3.29610000       0.68140000
H        1.57990000       4.00870000      -0.69730000
H        0.54920000       3.91660000       0.76020000
