14
Properties=species:S:1:pos:R:3 gdb_27780=T pbc="F F F"
C        0.02760000       1.49970000       0.03480000
C       -0.01580000       0.00290000       0.00280000
C       -1.17900000      -0.69260000      -0.14580000
C       -1.18960000      -2.12420000      -0.17180000
O       -2.08300000      -2.90750000      -0.28930000
O        0.13930000      -2.68840000      -0.02680000
C        1.19870000      -1.89320000       0.11050000
O        2.33560000      -2.56940000       0.23040000
N        1.21210000      -0.60830000       0.13530000
H        0.67700000       1.86710000      -0.76680000
H       -0.96480000       1.94040000      -0.07400000
H        0.47260000       1.83580000       0.97720000
H       -2.13570000      -0.19950000      -0.24890000
H        2.13100000      -3.51360000       0.18940000
