15
Properties=species:S:1:pos:R:3 gdb_29209=T pbc="F F F"
C       -0.07160000       1.50520000      -0.01280000
C       -0.01640000       0.00510000      -0.00920000
N       -0.01180000      -0.60830000      -1.15700000
C        0.02090000      -1.98620000      -1.22710000
O        0.03610000      -2.63930000      -2.22870000
O        0.03230000      -2.69580000      -0.00150000
C        0.05840000      -2.04480000       1.16790000
C        0.02800000      -0.69550000       1.25560000
N       -0.06350000       0.01450000       2.46900000
H        0.85680000       1.92830000       0.39270000
H       -0.20350000       1.86510000      -1.03250000
H       -0.88790000       1.85830000       0.62600000
H        0.08360000      -2.71760000       2.01960000
H        0.02860000      -0.58570000       3.27960000
H        0.60820000       0.76960000       2.54120000
