19
Properties=species:S:1:pos:R:3 gdb_13562=T pbc="F F F"
C        2.56600000       0.10030000       0.94910000
C        1.29330000      -0.70070000       0.63320000
C        0.11100000      -0.01670000       1.30650000
O       -0.34960000      -0.34010000       2.37020000
N        1.06260000      -0.68970000      -0.80700000
C        1.77410000      -1.66730000      -1.62620000
C        0.29730000      -1.76850000      -1.44720000
C       -0.32720000      -2.91690000      -0.68370000
H        3.42700000      -0.35850000       0.45420000
H        2.47440000       1.12790000       0.58470000
H        2.75070000       0.11770000       2.02650000
H        1.38640000      -1.70580000       1.06930000
H       -0.28880000       0.84610000       0.72660000
H        2.20910000      -1.29210000      -2.54910000
H        2.37830000      -2.41590000      -1.11360000
H       -0.32760000      -1.39410000      -2.25680000
H        0.35910000      -3.36640000       0.03780000
H       -1.22440000      -2.59580000      -0.14330000
H       -0.62710000      -3.70200000      -1.38540000
