10
Properties=species:S:1:pos:R:3 gdb_3847=T pbc="F F F"
N       -0.03360000       1.29070000       0.00960000
C       -0.04760000       0.02950000       0.00310000
O        1.17470000      -0.67710000      -0.00780000
N        1.23740000      -2.05380000      -0.01610000
C        0.11100000      -2.67080000      -0.01290000
C       -1.15770000      -1.96910000      -0.00110000
N       -1.23940000      -0.68970000       0.00650000
H        0.92510000       1.64010000       0.00560000
H        0.17000000      -3.75370000      -0.01940000
H       -2.08360000      -2.54350000       0.00140000
