19
Properties=species:S:1:pos:R:3 gdb_46665=T pbc="F F F"
O        0.01980000       0.02250000       0.23500000
C        0.01230000       1.21530000       0.07860000
C       -1.26670000       2.10700000       0.00440000
C       -0.82990000       3.59200000      -0.21140000
C        0.58150000       3.43460000      -0.80570000
C        1.98860000       3.85780000      -0.25300000
C        1.63580000       3.12290000       1.06450000
C        1.14750000       2.18460000      -0.10440000
C        2.51560000       2.47270000      -0.78740000
H       -1.84900000       1.73780000      -0.84820000
H       -1.88690000       1.94730000       0.89100000
H       -1.50880000       4.11810000      -0.88680000
H       -0.84040000       4.13940000       0.73360000
H        0.54500000       3.35460000      -1.89830000
H        2.49250000       4.82050000      -0.35720000
H        2.47050000       2.73320000       1.65160000
H        0.88120000       3.57000000       1.71090000
H        2.54740000       2.34370000      -1.87210000
H        3.41110000       2.07630000      -0.30430000
