18
Properties=species:S:1:pos:R:3 gdb_36473=T pbc="F F F"
C        0.02230000      -1.22210000      -0.10410000
C        0.01230000      -0.02100000      -0.08480000
C       -0.00170000       1.43770000      -0.03290000
N        1.33580000       1.98890000       0.10890000
C        2.07750000       1.77640000       1.36870000
C        2.64330000       3.20850000       1.23170000
C        1.45220000       3.46020000       0.26020000
C        1.65100000       4.22530000      -0.95820000
C        1.81460000       4.86950000      -1.96000000
H        0.03040000      -2.28350000      -0.13290000
H       -0.43280000       1.83720000      -0.96000000
H       -0.67060000       1.76010000       0.79150000
H        1.41810000       1.67650000       2.24660000
H        2.77490000       0.93530000       1.35130000
H        2.68160000       3.82910000       2.12630000
H        3.60060000       3.23880000       0.71130000
H        0.59760000       3.88170000       0.82020000
H        1.96450000       5.43190000      -2.84830000
