23
Properties=species:S:1:pos:R:3 gdb_57953=T pbc="F F F"
C       -0.08960000       1.54320000       0.29100000
C        0.05290000       0.02370000       0.06090000
C        0.70330000      -0.27810000      -1.29240000
C        0.87500000      -0.55870000       1.21510000
O        2.08280000      -0.61790000       1.16820000
C        0.08840000      -1.05740000       2.42410000
C        0.93450000      -1.30240000       3.64970000
C        1.10160000      -0.22090000       4.68530000
C        0.28810000      -1.45280000       5.00230000
H        0.89340000       2.02390000       0.26800000
H       -0.70780000       1.98980000      -0.49360000
H       -0.55590000       1.77170000       1.25500000
H       -0.95030000      -0.42050000       0.09890000
H        1.72910000       0.09840000      -1.30980000
H        0.74240000      -1.35470000      -1.48430000
H        0.14110000       0.19280000      -2.10470000
H       -0.72860000      -0.35570000       2.63830000
H       -0.41270000      -1.98380000       2.09940000
H        1.81190000      -1.91030000       3.45740000
H        2.07090000      -0.10410000       5.15630000
H        0.56750000       0.71250000       4.53660000
H       -0.79010000      -1.34440000       5.06740000
H        0.70000000      -2.18090000       5.69240000
