13
Properties=species:S:1:pos:R:3 gdb_132600=T pbc="F F F"
N       -0.01570000       1.41500000       0.15710000
C       -0.04240000       0.03540000       0.05480000
C       -1.21050000      -0.72350000       0.03950000
C       -1.10010000      -2.10880000      -0.00490000
F       -2.21220000      -2.84850000      -0.01990000
C        0.13770000      -2.72480000      -0.03570000
N        1.26350000      -1.99440000      -0.02690000
C        1.15890000      -0.69960000       0.01590000
F        2.29530000       0.01620000       0.01390000
H        0.85540000       1.83960000      -0.12300000
H       -0.82800000       1.90190000      -0.18960000
H       -2.18950000      -0.25870000       0.06580000
H        0.22760000      -3.80450000      -0.07100000
