19
Properties=species:S:1:pos:R:3 gdb_110686=T pbc="F F F"
C       -0.25960000       1.27690000       0.10510000
O        0.37620000       0.04100000      -0.13620000
C        0.87050000      -0.56250000       1.02790000
C       -0.09590000      -1.38900000       1.91540000
C       -0.13550000      -2.49220000       0.79630000
C       -0.17150000      -3.83170000       1.51780000
O        0.73660000      -3.57880000       2.60450000
C        1.12670000      -2.24060000       2.36570000
C        1.35860000      -2.00400000       0.84420000
H        0.42070000       1.99520000       0.58890000
H       -0.56550000       1.67960000      -0.86330000
H       -1.15040000       1.16550000       0.74110000
H        1.54390000       0.12570000       1.56170000
H       -0.92540000      -1.05020000       2.53680000
H       -0.72900000      -2.34220000      -0.10150000
H       -1.16350000      -4.09010000       1.90910000
H        0.19570000      -4.66620000       0.90750000
H        1.83020000      -1.90130000       3.12470000
H        2.18870000      -2.35930000       0.23340000
