19
Properties=species:S:1:pos:R:3 gdb_35042=T pbc="F F F"
C       -0.09990000      -1.25130000      -0.03660000
C       -0.04980000      -0.04890000      -0.01730000
C       -0.01240000       1.38110000       0.00210000
C        0.48780000       2.15160000       1.22880000
C        1.03680000       1.40350000       2.44060000
C        2.57700000       1.43640000       2.50990000
C        3.21130000       1.14660000       1.17070000
C        2.62280000       1.46030000       0.01620000
C        1.31330000       2.15540000      -0.02600000
H       -0.13900000      -2.31180000      -0.06300000
H       -0.82650000       1.85600000      -0.53870000
H       -0.07350000       3.05480000       1.44450000
H        0.61260000       1.82780000       3.35590000
H        0.71380000       0.35800000       2.40040000
H        2.92050000       2.41760000       2.86990000
H        2.92500000       0.71130000       3.25420000
H        4.18710000       0.66800000       1.16820000
H        3.10190000       1.23100000      -0.93180000
H        1.28170000       3.04900000      -0.64450000
