17
Properties=species:S:1:pos:R:3 gdb_7382=T pbc="F F F"
C        0.74230000       1.26420000      -0.04420000
O        0.87400000      -0.12920000      -0.23090000
C       -0.11410000      -0.67130000      -1.09150000
C        0.11140000      -2.18290000      -1.21950000
O       -0.99820000      -2.75580000      -1.85130000
C        1.37390000      -2.54020000      -2.02810000
N        2.53070000      -1.98770000      -1.60270000
O        1.28070000      -3.30830000      -2.97420000
H        0.84720000       1.81240000      -0.99250000
H       -0.23340000       1.51660000       0.39570000
H        1.53300000       1.57910000       0.64040000
H       -1.11950000      -0.50840000      -0.67750000
H       -0.07720000      -0.19410000      -2.08360000
H        0.24150000      -2.58440000      -0.20080000
H       -0.61370000      -3.27840000      -2.57860000
H        2.49440000      -1.23720000      -0.92770000
H        3.36470000      -2.14440000      -2.14520000
