19
Properties=species:S:1:pos:R:3 gdb_45045=T pbc="F F F"
O        0.04930000       0.13900000      -0.58960000
C       -0.01080000       1.25350000      -0.12920000
C       -1.28580000       1.94670000       0.38000000
C       -0.82540000       3.25460000       0.99700000
C        0.13550000       3.18720000       2.15680000
C        0.67150000       3.41250000       0.76270000
C        1.15060000       2.19810000       0.02470000
C        2.53450000       1.59200000       0.16080000
C        2.14990000       2.25530000      -1.12080000
H       -1.94480000       2.11480000      -0.48050000
H       -1.82400000       1.28270000       1.06420000
H       -1.47930000       4.11570000       0.92740000
H        0.14790000       4.02750000       2.84230000
H        0.32040000       2.22560000       2.62810000
H        1.09560000       4.37870000       0.51380000
H        3.22860000       2.09920000       0.82170000
H        2.57720000       0.50800000       0.17180000
H        1.93950000       1.62280000      -1.97620000
H        2.57220000       3.22730000      -1.35270000
