23
Properties=species:S:1:pos:R:3 gdb_81582=T pbc="F F F"
C       -0.19550000       1.50250000       0.33990000
C        0.03140000       0.00940000       0.14920000
C        1.10560000      -0.54830000      -0.84210000
C        2.20100000      -0.14440000       0.18500000
C        1.05920000      -0.79220000       1.02060000
C        1.02120000      -1.91060000      -0.07670000
C       -0.15800000      -2.84560000      -0.24960000
C       -0.24140000      -4.09980000       0.58870000
C       -1.25160000      -3.00100000       0.78250000
H        0.72530000       2.08240000       0.43850000
H       -0.75310000       1.91310000      -0.50980000
H       -0.79660000       1.68420000       1.23830000
H       -0.93580000      -0.48930000       0.05660000
H        1.13650000      -0.41430000      -1.92620000
H        3.14030000      -0.70250000       0.13560000
H        2.39170000       0.91860000       0.33040000
H        1.04000000      -0.93190000       2.10430000
H        1.95660000      -2.47950000      -0.13880000
H       -0.47640000      -2.96630000      -1.28290000
H       -0.55870000      -5.02220000       0.11480000
H        0.50910000      -4.23260000       1.36200000
H       -1.18150000      -2.40840000       1.68840000
H       -2.26760000      -3.16250000       0.43810000
