24
Properties=species:S:1:pos:R:3 gdb_11565=T pbc="F F F"
C        0.05720000       1.57180000      -0.01850000
C       -0.03920000       0.04410000       0.04790000
C       -1.46880000      -0.52380000      -0.04110000
C       -2.13470000      -0.20500000      -1.38720000
C       -1.45310000      -2.03810000       0.25200000
C       -2.81890000      -2.68100000       0.39020000
C       -3.50430000      -3.34310000      -0.78100000
C       -2.95780000      -4.18220000       0.34700000
H        1.08990000       1.90420000       0.12790000
H       -0.27760000       1.96440000      -0.98330000
H       -0.55480000       2.04040000       0.76080000
H        0.56930000      -0.39610000      -0.75480000
H        0.41210000      -0.29650000       0.98890000
H       -2.06370000      -0.04350000       0.75160000
H       -1.56710000      -0.64710000      -2.21570000
H       -3.15120000      -0.60370000      -1.43170000
H       -2.19380000       0.87280000      -1.56390000
H       -0.88890000      -2.55520000      -0.53780000
H       -0.89040000      -2.20360000       1.18140000
H       -3.47780000      -2.17310000       1.09170000
H       -4.58050000      -3.24690000      -0.87790000
H       -2.97600000      -3.36500000      -1.72860000
H       -2.06250000      -4.76540000       0.15570000
H       -3.65930000      -4.65850000       1.02310000
