19
Properties=species:S:1:pos:R:3 gdb_122375=T pbc="F F F"
O        0.21870000       1.24070000      -0.52330000
C       -0.04020000       0.01660000       0.13390000
C       -1.52180000      -0.32260000       0.13080000
O       -1.92010000      -0.42310000      -1.23190000
C       -3.25890000      -0.76620000      -1.40820000
C       -4.39770000       0.30830000      -1.38770000
C       -3.83790000       0.91370000      -2.69540000
C       -3.85370000      -0.62870000      -2.82680000
O       -5.19130000      -0.64620000      -2.19200000
H       -0.18120000       1.16330000      -1.39680000
H        0.51740000      -0.81500000      -0.32550000
H        0.30800000       0.12550000       1.16610000
H       -1.70480000      -1.27240000       0.65720000
H       -2.09270000       0.47050000       0.63570000
H       -3.52980000      -1.69620000      -0.89420000
H       -4.89840000       0.79330000      -0.54990000
H       -4.57100000       1.43500000      -3.31150000
H       -2.86860000       1.41180000      -2.65370000
H       -3.70130000      -1.25910000      -3.70260000
