13
Properties=species:S:1:pos:R:3 gdb_15033=T pbc="F F F"
O       -0.19210000       0.25180000       0.51470000
C       -0.03680000       1.32760000       0.00960000
C        1.36270000       1.96820000      -0.11910000
C        1.43320000       2.85530000      -1.27590000
N        1.46960000       3.54410000      -2.20260000
C        1.67350000       2.68330000       1.20220000
C        2.42820000       3.93760000       1.28100000
O        1.00300000       3.91100000       1.43490000
H       -0.87740000       1.94840000      -0.35790000
H        2.07860000       1.14700000      -0.23870000
H        1.68850000       1.99340000       2.04570000
H        2.98940000       4.16090000       2.18610000
H        2.78510000       4.40920000       0.36850000
