14
Properties=species:S:1:pos:R:3 gdb_130134=T pbc="F F F"
N       -0.02530000       1.36530000       0.15900000
C       -0.02150000      -0.01050000       0.04950000
N       -1.17590000      -0.62320000       0.01410000
N       -1.08000000      -1.99210000      -0.00980000
C        0.04780000      -2.74120000      -0.02030000
O        0.09050000      -3.96790000      -0.04480000
C        1.26550000      -1.88350000      -0.00570000
N        2.41140000      -2.57570000      -0.03580000
N        1.22580000      -0.58020000       0.02990000
H        0.80490000       1.80790000      -0.20280000
H       -0.89270000       1.80630000      -0.10540000
H       -1.96680000      -2.47550000      -0.02600000
H        2.33770000      -3.58110000      -0.05080000
H        3.29940000      -2.10640000      -0.01480000
