22
Properties=species:S:1:pos:R:3 gdb_102716=T pbc="F F F"
C        0.05390000       1.50530000      -0.10800000
C        0.01140000      -0.01580000       0.04870000
C       -1.41580000      -0.60930000       0.03250000
C       -1.40690000      -2.15610000       0.09260000
C       -2.77930000      -2.78100000      -0.02490000
C       -3.40110000      -2.99630000      -1.38390000
C       -2.93190000      -4.17730000      -0.56950000
C       -2.21740000      -0.05840000       1.13140000
N       -2.83750000       0.36750000       2.00970000
H        1.08640000       1.86600000      -0.09960000
H       -0.40200000       1.81980000      -1.05330000
H       -0.48330000       2.00300000       0.70490000
H        0.57000000      -0.49190000      -0.76550000
H        0.50450000      -0.31180000       0.98190000
H       -1.90970000      -0.30760000      -0.90100000
H       -0.76980000      -2.51210000      -0.72610000
H       -0.92480000      -2.47010000       1.02670000
H       -3.46470000      -2.50450000       0.77140000
H       -4.46740000      -2.83600000      -1.49610000
H       -2.81820000      -2.72500000      -2.25890000
H       -2.03630000      -4.69450000      -0.89850000
H       -3.67760000      -4.82480000      -0.12230000
