18
Properties=species:S:1:pos:R:3 gdb_19931=T pbc="F F F"
C        0.03110000       1.52680000       0.29480000
C        1.31650000       0.80640000       0.00120000
C        2.19950000       0.36270000       1.16820000
C        1.37030000      -0.64490000       1.99420000
C        0.50180000      -0.14210000       3.16560000
O       -0.71710000      -0.33830000       2.42010000
C        0.01050000      -0.84850000       1.26910000
C        0.00210000       0.04030000       0.03780000
H       -0.18000000       1.86160000       1.30430000
H       -0.36880000       2.17170000      -0.48010000
H        1.80200000       1.01030000      -0.94720000
H        3.10050000      -0.12230000       0.77850000
H        2.53760000       1.20760000       1.78020000
H        1.93410000      -1.55050000       2.22220000
H        0.52750000      -0.76630000       4.06760000
H        0.64750000       0.90680000       3.45770000
H       -0.29910000      -1.87350000       1.03950000
H       -0.46440000      -0.32810000      -0.86830000
