21
Properties=species:S:1:pos:R:3 gdb_79292=T pbc="F F F"
C        0.00900000       1.62190000      -0.00540000
C        0.01500000       0.09470000      -0.04640000
C        0.92590000      -0.50860000      -1.11480000
C        2.26240000      -0.64740000      -0.42220000
O        2.12600000      -0.19620000       0.91580000
C        0.75490000      -0.57680000       1.13970000
C        0.77030000      -2.08460000       0.77570000
C       -0.56360000      -2.82760000       0.80530000
C        1.40190000      -1.87250000      -0.60060000
H        1.01970000       2.00700000       0.15180000
H       -0.37540000       2.03800000      -0.94260000
H       -0.62760000       1.99110000       0.80620000
H       -1.01000000      -0.27940000      -0.12500000
H        0.83410000      -0.28020000      -2.16850000
H        3.23400000      -0.47600000      -0.86250000
H        0.45750000      -0.29940000       2.14990000
H        1.48120000      -2.58800000       1.44180000
H       -1.28720000      -2.41350000       0.09790000
H       -0.41900000      -3.88040000       0.54190000
H       -1.01070000      -2.79860000       1.80540000
H        1.66890000      -2.68530000      -1.26320000
