20
Properties=species:S:1:pos:R:3 gdb_97153=T pbc="F F F"
C       -0.01020000       1.42140000       0.13390000
N        0.00960000      -0.03390000       0.19870000
C       -1.05180000      -0.65890000      -0.08090000
O       -2.20300000      -0.00520000      -0.43830000
C       -3.38550000      -0.76600000      -0.74720000
C       -3.16890000      -2.26810000      -0.62380000
C       -2.44090000      -2.56240000       0.71440000
C       -1.14100000      -2.15770000      -0.04560000
C       -1.84880000      -2.64620000      -1.34620000
H        0.97770000       1.80340000       0.40280000
H       -0.26080000       1.78490000      -0.87130000
H       -0.74840000       1.85380000       0.82200000
H       -4.17280000      -0.42760000      -0.06240000
H       -3.68270000      -0.49700000      -1.76820000
H       -4.08980000      -2.80390000      -0.86670000
H       -2.72290000      -1.98330000       1.59810000
H       -2.44440000      -3.62770000       0.95540000
H       -0.18120000      -2.57730000       0.24730000
H       -1.74690000      -3.72650000      -1.47160000
H       -1.60690000      -2.14130000      -2.28550000
