14
Properties=species:S:1:pos:R:3 gdb_132409=T pbc="F F F"
F       -0.01750000       0.02280000       0.00340000
C       -0.01960000       1.35890000       0.01060000
C       -1.23010000       2.03360000       0.03090000
C       -1.22290000       3.43070000       0.03820000
C       -2.51130000       4.16290000       0.05990000
O       -2.61680000       5.36630000       0.06780000
C       -0.01160000       4.13140000       0.02520000
C        1.18790000       3.43260000       0.00490000
C        1.19210000       2.03700000      -0.00260000
H       -2.16070000       1.47570000       0.04080000
H       -3.41070000       3.50680000       0.06890000
H       -0.03970000       5.21460000       0.03140000
H        2.13100000       3.96800000      -0.00530000
H        2.11570000       1.47020000      -0.01830000
