20
Properties=species:S:1:pos:R:3 gdb_51576=T pbc="F F F"
O        0.15490000       0.69830000      -1.51420000
C        0.07990000       1.41960000      -0.54490000
N        1.10560000       1.70000000       0.30780000
C        2.39510000       1.08480000       0.20750000
C        3.35170000       1.55160000      -0.86060000
C        3.60790000       1.90750000       0.58330000
C        3.46770000       3.31810000       1.06400000
C        3.55550000       3.63440000       2.54210000
C        4.66520000       4.05370000       1.61080000
H       -0.85050000       1.94750000      -0.24900000
H        0.89700000       2.23510000       1.13720000
H        2.41200000       0.02520000       0.45100000
H        3.97460000       0.80800000      -1.34360000
H        3.00070000       2.34200000      -1.51430000
H        4.39480000       1.34890000       1.08450000
H        2.76770000       3.91910000       0.49120000
H        2.90570000       4.40200000       2.94840000
H        3.75100000       2.81240000       3.22310000
H        5.60480000       3.51420000       1.66760000
H        4.77250000       5.10690000       1.37690000
