17
Properties=species:S:1:pos:R:3 gdb_29453=T pbc="F F F"
C       -0.01720000       1.52770000      -0.00980000
C       -0.00710000       0.03190000       0.04460000
C       -0.03000000      -0.82490000      -1.01970000
O       -0.01150000      -2.14550000      -0.62710000
C        0.02360000      -2.10480000       0.71810000
C        0.02830000      -0.83020000       1.19560000
C        0.06710000      -0.91320000       2.65840000
C        0.08450000      -2.21330000       3.02000000
C        0.05810000      -3.12980000       1.79920000
H        0.87680000       1.95250000       0.46110000
H       -0.05180000       1.88580000      -1.04260000
H       -0.88440000       1.94250000       0.51670000
H       -0.05920000      -0.66290000      -2.08490000
H        0.07980000      -0.07060000       3.33800000
H        0.11340000      -2.59700000       4.03080000
H       -0.81860000      -3.79070000       1.80530000
H        0.94180000      -3.78000000       1.75920000
