14
Properties=species:S:1:pos:R:3 gdb_34795=T pbc="F F F"
N       -0.10440000      -1.17030000      -0.04870000
C       -0.03970000      -0.01740000      -0.00630000
C        0.03140000       1.43460000       0.01950000
N        0.05840000       2.10280000       1.41620000
C        1.52780000       1.63720000       1.48450000
C        1.41610000       2.15440000       0.02760000
C        0.62070000       3.32140000       0.66160000
C        2.41250000       2.19000000      -1.02160000
N        3.20820000       2.22870000      -1.85890000
H       -0.73030000       1.86110000      -0.63690000
H        2.13480000       2.22300000       2.17550000
H        1.64900000       0.56490000       1.63880000
H       -0.11300000       3.83820000       0.03990000
H        1.17230000       4.00890000       1.30310000
