15
Properties=species:S:1:pos:R:3 gdb_16472=T pbc="F F F"
O        0.13510000       1.35380000       0.10710000
C        0.06510000      -0.01830000       0.06740000
C        0.91650000      -0.78500000       1.06500000
O        0.58160000      -2.14310000       0.72160000
C       -0.33840000      -1.97570000      -0.33700000
C       -1.30010000      -0.78650000      -0.06250000
N       -1.32830000      -0.38570000      -1.51760000
C        0.09740000      -0.82250000      -1.28280000
H       -0.46290000       1.66690000      -0.58710000
H        1.99020000      -0.61060000       0.93230000
H        0.64590000      -0.57600000       2.10610000
H       -0.69920000      -2.92830000      -0.72210000
H       -2.17670000      -0.73010000       0.58390000
H       -1.82840000      -1.08820000      -2.06950000
H        0.85710000      -0.80830000      -2.06520000
