21
Properties=species:S:1:pos:R:3 gdb_92664=T pbc="F F F"
O        0.26460000       1.41290000      -0.07090000
C        0.12110000       0.00990000       0.00080000
C        0.22160000      -0.56490000       1.44570000
C       -1.31820000      -0.52440000       1.51710000
O       -1.70010000       0.75070000       2.03040000
C       -2.98430000       1.16140000       1.56460000
C       -2.94700000       1.46200000       0.06700000
C       -2.49260000       0.22260000      -0.72430000
C       -1.35210000      -0.52920000      -0.03710000
H       -0.19340000       1.77280000       0.69940000
H        0.79860000      -0.40200000      -0.75150000
H        0.60410000      -1.58870000       1.46320000
H        0.75710000       0.04050000       2.18080000
H       -1.85220000      -1.31920000       2.05630000
H       -3.73090000       0.38120000       1.78830000
H       -3.24580000       2.05020000       2.14600000
H       -3.93820000       1.78680000      -0.26930000
H       -2.25850000       2.29450000      -0.10780000
H       -3.34510000      -0.46270000      -0.82090000
H       -2.20200000       0.50360000      -1.74260000
H       -1.31660000      -1.56550000      -0.39150000
