22
Properties=species:S:1:pos:R:3 gdb_57458=T pbc="F F F"
C       -1.40230000      -0.70960000      -0.48180000
C       -0.11000000      -0.05940000       0.03250000
C       -0.33560000       1.41710000       0.36680000
O        0.27100000      -0.66960000       1.27290000
C        1.00360000      -0.19360000      -1.02170000
C        2.46330000       0.24570000      -0.72610000
N        3.02100000      -1.04670000      -1.27700000
C        2.53490000      -2.09380000      -0.36880000
C        1.59310000      -1.56070000      -1.38380000
H       -1.76550000      -0.21790000      -1.38980000
H       -1.23800000      -1.76750000      -0.72000000
H       -2.18330000      -0.64890000       0.28150000
H       -1.12270000       1.51620000       1.11940000
H        0.57740000       1.86230000       0.77220000
H       -0.63070000       1.97920000      -0.52420000
H        0.27350000      -1.62270000       1.13600000
H        0.65890000       0.29660000      -1.93810000
H        2.81100000       1.09470000      -1.31660000
H        2.71250000       0.40690000       0.32680000
H        2.97080000      -3.06670000      -0.57650000
H        2.41990000      -1.85740000       0.68460000
H        1.28240000      -2.16390000      -2.23200000
