16
Properties=species:S:1:pos:R:3 gdb_67206=T pbc="F F F"
O       -0.06720000       1.47460000      -0.15780000
C        0.05150000       0.12050000      -0.05980000
C        0.03710000      -1.01570000      -1.05430000
C        1.27350000      -1.65980000      -0.43440000
C        0.93690000      -0.86060000       0.85210000
C       -0.40180000      -1.51900000       1.33370000
C       -0.92190000      -0.95630000       2.57140000
N       -1.33140000      -0.52150000       3.56140000
C       -1.02910000      -0.90360000       0.07610000
H        0.68200000       1.82090000      -0.65630000
H       -0.28360000      -1.00410000      -2.08800000
H        1.31150000      -2.75080000      -0.34270000
H        2.19340000      -1.30200000      -0.90460000
H        1.69670000      -0.58440000       1.57830000
H       -0.38860000      -2.61190000       1.41250000
H       -2.08010000      -0.80150000      -0.15610000
