19
Properties=species:S:1:pos:R:3 gdb_78525=T pbc="F F F"
C       -0.01570000       1.49780000       0.03460000
C       -0.00960000      -0.00210000      -0.05900000
C       -0.85930000      -0.87990000       0.79540000
O       -1.80620000      -1.79530000       0.31110000
C        0.63570000      -1.05200000       0.89150000
C        1.35470000      -1.67660000      -0.33910000
O        2.70440000      -1.97590000      -0.27130000
C        0.45110000      -2.18250000      -1.42800000
C        0.70090000      -0.68980000      -1.26320000
H        0.98370000       1.90960000      -0.14740000
H       -0.69360000       1.93460000      -0.70980000
H       -0.34260000       1.83400000       1.02350000
H       -1.22840000      -0.32420000       1.66330000
H       -1.87910000      -2.50580000       0.95830000
H        1.17630000      -0.87110000       1.81420000
H        2.79350000      -2.89120000       0.01850000
H        1.01350000      -2.59290000      -2.26330000
H       -0.51630000      -2.62670000      -1.24560000
H        1.15370000      -0.10200000      -2.05110000
