21
Properties=species:S:1:pos:R:3 gdb_107487=T pbc="F F F"
C        0.08730000       1.41750000      -0.15950000
O       -0.00080000       0.01370000       0.03590000
C       -1.28510000      -0.48490000       0.04930000
C       -1.63520000      -1.68830000      -0.76580000
C       -2.42210000      -0.41040000      -0.98250000
C       -3.44450000      -0.21910000       0.14780000
C       -2.29420000      -0.31840000       1.17600000
C       -2.28970000      -1.00250000       2.51250000
C       -2.12610000       0.49960000       2.41950000
H        1.14770000       1.67560000      -0.10970000
H       -0.30820000       1.70630000      -1.14260000
H       -0.45490000       1.97750000       0.61180000
H       -0.91840000      -1.91090000      -1.54980000
H       -2.09950000      -2.55970000      -0.30860000
H       -2.45630000       0.07270000      -1.95070000
H       -3.91350000       0.76920000       0.13620000
H       -4.22590000      -0.98390000       0.21930000
H       -3.23070000      -1.38920000       2.89070000
H       -1.41960000      -1.59210000       2.78370000
H       -1.14290000       0.90620000       2.63270000
H       -2.95090000       1.13090000       2.73590000
