17
Properties=species:S:1:pos:R:3 gdb_18772=T pbc="F F F"
C       -0.00760000       1.46290000       0.02340000
C       -0.05010000      -0.03260000      -0.03970000
C       -0.09100000      -0.96150000       1.19600000
C        1.01710000      -1.06440000       0.18740000
N        0.20120000      -2.08640000      -0.59220000
C       -0.80430000      -2.17250000       0.58010000
C       -1.92780000      -1.66740000      -0.34190000
C       -0.75550000      -0.96170000      -1.04540000
H        0.63760000       1.80370000       0.84040000
H        0.38340000       1.89180000      -0.90630000
H       -1.00480000       1.88620000       0.19310000
H       -0.08130000      -0.58340000       2.21040000
H        2.09760000      -1.02840000       0.25430000
H       -0.86900000      -3.10630000       1.13920000
H       -2.33390000      -2.47560000      -0.95640000
H       -2.73350000      -1.06420000       0.08430000
H       -0.77210000      -0.69070000      -2.10220000
