17
Properties=species:S:1:pos:R:3 gdb_124153=T pbc="F F F"
C        0.05540000       1.42060000       0.05980000
C        0.03310000      -0.03310000       0.02880000
C        0.02580000      -1.23860000       0.00350000
C       -0.02320000      -2.65500000      -0.02750000
N        1.09370000      -3.40080000       0.00060000
N        0.66150000      -4.67070000      -0.04930000
C        1.62310000      -5.75100000      -0.00200000
C       -0.69200000      -4.76150000      -0.10430000
C       -1.17880000      -3.47510000      -0.09350000
H        1.08010000       1.79650000       0.15350000
H       -0.37180000       1.84700000      -0.85510000
H       -0.51990000       1.81140000       0.90700000
H        2.10110000      -5.79980000       0.98090000
H        1.10850000      -6.69270000      -0.19980000
H        2.39300000      -5.59150000      -0.76010000
H       -1.18930000      -5.71770000      -0.14740000
H       -2.20720000      -3.15730000      -0.13280000
