21
Properties=species:S:1:pos:R:3 gdb_65035=T pbc="F F F"
C        0.39630000       0.97600000       1.00250000
C       -0.04020000      -0.02150000      -0.05120000
C        0.47780000       0.08540000      -1.42330000
O        0.99760000      -0.89300000      -0.51400000
C       -1.37590000      -0.72480000       0.18980000
C       -1.29830000      -1.68130000       1.37280000
C       -2.62110000       0.20380000       0.13610000
C       -3.01790000      -0.62770000      -1.09600000
O       -1.82920000      -1.43730000      -0.99630000
H        1.34610000       1.43240000       0.71410000
H       -0.34400000       1.77180000       1.13350000
H        0.54030000       0.48690000       1.97070000
H       -0.10310000      -0.32310000      -2.24480000
H        1.16100000       0.89730000      -1.67200000
H       -1.08210000      -1.15030000       2.30520000
H       -2.24810000      -2.20980000       1.49100000
H       -0.50800000      -2.41660000       1.19770000
H       -3.28860000       0.13000000       0.99630000
H       -2.40760000       1.25500000      -0.06460000
H       -3.92860000      -1.22980000      -0.99340000
H       -3.06320000      -0.08010000      -2.04520000
