19
Properties=species:S:1:pos:R:3 gdb_76913=T pbc="F F F"
C       -0.17220000       1.50590000       0.11890000
C        0.10690000       0.02410000       0.02640000
O       -0.99020000      -0.75240000      -0.38480000
C        1.41880000      -0.48290000      -0.50890000
O        2.44540000       0.41540000      -0.80930000
C        1.10000000      -0.66450000       0.96040000
C        1.86790000       0.06580000       2.01060000
C        1.55890000      -0.09250000       3.43900000
O        2.68870000      -0.74600000       2.86240000
H        0.74680000       2.07950000       0.25600000
H       -0.66020000       1.84540000      -0.80080000
H       -0.84200000       1.73190000       0.95680000
H       -1.62690000      -0.77590000       0.33870000
H        1.36990000      -1.37330000      -1.13430000
H        2.24980000       0.82040000      -1.66100000
H        0.82420000      -1.67500000       1.24700000
H        2.35070000       0.98630000       1.69060000
H        1.78510000       0.71200000       4.13820000
H        0.74330000      -0.74940000       3.74170000
