21
Properties=species:S:1:pos:R:3 gdb_124509=T pbc="F F F"
C       -0.02030000       1.57030000      -0.02510000
C        0.03400000       0.03150000      -0.02090000
C        0.68730000      -0.49770000      -1.31080000
C        0.72670000      -0.49660000       1.20830000
C        0.19080000      -1.28160000       2.21150000
N        1.17000000      -1.50410000       3.12510000
C        1.11060000      -2.33210000       4.30930000
N        2.33040000      -0.91620000       2.77760000
C        2.06610000      -0.30550000       1.62470000
H        0.98830000       1.99720000      -0.05290000
H       -0.56380000       1.93960000      -0.90150000
H       -0.51690000       1.95020000       0.87260000
H       -1.00000000      -0.33700000       0.00290000
H        1.72540000      -0.15710000      -1.39180000
H        0.69430000      -1.59140000      -1.32980000
H        0.14900000      -0.14140000      -2.19570000
H       -0.80120000      -1.68710000       2.34060000
H        1.46860000      -3.34730000       4.10560000
H        1.73960000      -1.88530000       5.08060000
H        0.07940000      -2.38240000       4.66550000
H        2.84650000       0.25980000       1.13540000
