19
Properties=species:S:1:pos:R:3 gdb_94502=T pbc="F F F"
C       -0.30610000       1.47310000       0.01400000
C       -0.00710000      -0.02010000      -0.02700000
C        1.22150000      -0.40900000      -0.90180000
C        2.08990000      -0.52230000       0.37760000
C        0.77360000      -0.58160000       1.22270000
C        0.72910000       0.12550000       2.48050000
C        0.69140000       0.74480000       3.51960000
C        0.67840000       1.44990000       4.77240000
O       -0.02920000       2.40000000       5.02260000
H        0.59500000       2.06170000       0.21770000
H       -0.71030000       1.80400000      -0.94850000
H       -1.03670000       1.71200000       0.79240000
H       -0.92420000      -0.57410000      -0.24510000
H        1.09030000      -1.37350000      -1.39940000
H        1.53620000       0.32580000      -1.64650000
H        2.76070000      -1.37840000       0.46910000
H        2.65490000       0.38900000       0.58310000
H        0.49310000      -1.62700000       1.39210000
H        1.38900000       1.04880000       5.52440000
