15
Properties=species:S:1:pos:R:3 gdb_130325=T pbc="F F F"
N       -0.06270000       1.38530000      -0.25720000
C        0.02200000       0.02210000      -0.05690000
N       -1.01460000      -0.77440000      -0.02240000
O       -0.49500000      -2.04550000       0.10390000
N        0.86550000      -2.01680000       0.15870000
C        1.21700000      -0.76420000       0.06410000
C        2.62120000      -0.31400000       0.08210000
C        3.47740000      -0.61040000       1.27410000
N        3.70500000      -1.30030000       0.00400000
H        0.59290000       1.93050000       0.28430000
H       -1.00530000       1.74210000      -0.17500000
H        2.80420000       0.60020000      -0.47810000
H        4.25230000       0.09380000       1.56390000
H        3.01110000      -1.15410000       2.09100000
H        3.30060000      -2.23420000       0.03670000
