18
Properties=species:S:1:pos:R:3 gdb_51346=T pbc="F F F"
O       -0.79640000       0.71370000       0.65450000
C        0.03660000       0.94760000      -0.18370000
C        1.24300000       1.84000000       0.03130000
C        1.34810000       2.91450000      -1.04640000
C        2.65560000       3.66230000      -1.29780000
C        3.20730000       2.44260000      -2.09860000
C        3.53300000       3.26540000      -3.34760000
C        2.23090000       3.84040000      -2.78820000
N        1.68920000       2.42170000      -2.45670000
H       -0.03230000       0.51170000      -1.20430000
H        1.17230000       2.28830000       1.02730000
H        2.13730000       1.20220000       0.00840000
H        0.44330000       3.53610000      -1.05420000
H        3.21080000       4.36240000      -0.66400000
H        3.70370000       1.55070000      -1.71490000
H        4.41720000       3.90540000      -3.30060000
H        3.45780000       2.74100000      -4.30350000
H        1.55960000       4.59760000      -3.19700000
