23
Properties=species:S:1:pos:R:3 gdb_59528=T pbc="F F F"
C        0.12770000       1.44480000       0.18680000
C       -0.02450000      -0.07190000       0.00830000
C       -1.50270000      -0.48420000       0.02240000
C        0.66790000      -0.54830000      -1.26810000
C        2.22190000      -0.41520000      -1.36910000
C        2.23490000      -1.81110000      -1.99090000
C        2.88760000      -2.25770000      -3.22210000
O        3.31150000      -2.72600000      -1.93200000
C        0.81010000      -2.08560000      -1.51150000
H        1.18040000       1.74420000       0.20810000
H       -0.35650000       1.98510000      -0.63570000
H       -0.33470000       1.78070000       1.12080000
H        0.47400000      -0.56550000       0.85610000
H       -2.04670000      -0.01480000      -0.80620000
H       -1.61940000      -1.56840000      -0.07430000
H       -1.98940000      -0.17700000       0.95390000
H        0.19510000      -0.07460000      -2.13690000
H        2.63540000       0.40980000      -1.95370000
H        2.69290000      -0.42120000      -0.37990000
H        2.40600000      -3.00430000      -3.85330000
H        3.59150000      -1.60170000      -3.73370000
H        0.81340000      -2.64510000      -0.56950000
H        0.11930000      -2.56710000      -2.20760000
