16
Properties=species:S:1:pos:R:3 gdb_69341=T pbc="F F F"
C        0.07940000       1.55780000      -0.01160000
C       -0.08640000       0.08190000       0.12710000
C       -1.37180000      -0.75700000       0.00910000
C       -0.71850000      -1.80330000       0.99800000
O       -1.28800000      -1.81410000       2.28480000
C       -0.54160000      -3.16370000       0.47310000
N       -0.44290000      -4.24580000       0.07940000
C        0.54190000      -0.91120000       1.01620000
O        0.97410000      -0.77810000      -0.33170000
H        1.09500000       1.85330000       0.26370000
H       -0.09940000       1.87140000      -1.04590000
H       -0.62980000       2.08870000       0.63090000
H       -2.24190000      -0.30410000       0.48930000
H       -1.61690000      -1.10200000      -0.99710000
H       -2.11660000      -2.30610000       2.25360000
H        1.26770000      -0.83920000       1.81780000
