14
Properties=species:S:1:pos:R:3 gdb_23987=T pbc="F F F"
C        0.16520000      -1.16070000      -0.00500000
C        0.03760000       0.03800000       0.00280000
C       -0.09900000       1.43890000       0.01180000
C       -1.23400000       2.24410000       0.03200000
C       -0.80960000       3.58510000       0.03270000
C        0.58200000       3.59060000       0.01300000
N        0.99130000       2.27750000       0.00060000
C        1.49970000       4.65790000       0.00540000
C        2.29430000       5.56440000      -0.00130000
H        0.26780000      -2.21740000      -0.01180000
H       -2.24870000       1.87940000       0.04450000
H       -1.42970000       4.46720000       0.04600000
H        1.95020000       1.97390000      -0.01450000
H        2.98670000       6.36910000      -0.00700000
