14
Properties=species:S:1:pos:R:3 gdb_27138=T pbc="F F F"
O        0.09620000       1.38920000      -0.00460000
C        0.07230000       0.03320000      -0.00560000
C        0.03370000      -0.77000000      -1.11830000
N        0.00900000      -0.45760000      -2.47830000
C       -0.02570000      -1.36600000      -3.48760000
O       -0.04020000      -2.57670000      -3.33410000
N        0.02170000      -2.06080000      -0.63270000
C        0.05290000      -1.97290000       0.72120000
N        0.08410000      -0.71580000       1.12910000
H        0.11610000       1.66070000       0.92090000
H        0.01830000       0.52480000      -2.70610000
H       -0.03970000      -0.88340000      -4.47990000
H       -0.00320000      -2.86400000      -1.24540000
H        0.05160000      -2.84240000       1.35860000
