12
Properties=species:S:1:pos:R:3 gdb_20326=T pbc="F F F"
C       -0.22450000      -0.99170000      -0.73460000
C       -0.06010000       0.03720000      -0.13770000
C        0.14550000       1.29820000       0.56780000
C        1.46100000       1.94690000       0.23360000
N        2.18580000       2.55010000       1.13670000
O        3.27780000       3.03830000       0.47690000
N        3.23470000       2.72940000      -0.85310000
C        2.12910000       2.06040000      -1.01940000
H       -0.37380000      -1.90830000      -1.25020000
H       -0.66940000       1.99150000       0.31920000
H        0.09990000       1.14840000       1.65150000
H        1.84220000       1.67790000      -1.98600000
