23
Properties=species:S:1:pos:R:3 gdb_104782=T pbc="F F F"
C        0.52340000       1.21220000       0.29680000
C        0.10720000      -0.23250000      -0.00020000
C        0.57720000      -0.72630000      -1.37020000
C        2.11330000      -0.91320000      -1.60350000
C        1.86710000      -2.37380000      -2.00060000
C        1.23050000      -3.11370000      -0.86180000
C        0.37460000      -2.21910000      -1.71980000
O        0.12590000       0.12010000      -2.42620000
C       -1.27180000       0.20760000      -2.60100000
H        1.61360000       1.31770000       0.29430000
H        0.12820000       1.90010000      -0.45550000
H        0.16050000       1.53120000       1.27860000
H        0.51150000      -0.89910000       0.76880000
H       -0.98380000      -0.33060000       0.06820000
H        2.43480000      -0.27900000      -2.43000000
H        2.76950000      -0.75400000      -0.74130000
H        2.35180000      -2.88850000      -2.82090000
H        1.07360000      -4.17660000      -1.01830000
H        1.46770000      -2.85350000       0.16700000
H       -0.46590000      -2.61390000      -2.27740000
H       -1.74770000      -0.77890000      -2.69150000
H       -1.76750000       0.75430000      -1.78640000
H       -1.43600000       0.75620000      -3.53220000
