11
Properties=species:S:1:pos:R:3 gdb_3414=T pbc="F F F"
O        0.03740000      -0.00560000      -0.05600000
C       -0.00740000       1.19760000       0.00250000
C       -1.22300000       2.06480000       0.08360000
C       -0.87960000       3.35720000       0.00820000
C        0.61570000       3.50770000      -0.05570000
O        1.26680000       2.99180000       1.12190000
C        1.18330000       2.15740000      -0.04720000
H       -2.21730000       1.65410000       0.20100000
H       -1.55650000       4.20240000       0.03600000
H        1.09280000       4.36060000      -0.52630000
H        2.12030000       1.86170000      -0.50710000
