21
Properties=species:S:1:pos:R:3 gdb_102326=T pbc="F F F"
C       -0.26370000       1.37420000       0.36920000
O       -0.05230000      -0.02250000       0.31380000
C        0.52500000      -0.46180000      -0.89980000
C        1.20590000      -1.81220000      -0.64890000
C        2.42990000      -1.68210000       0.26940000
C        3.06700000      -3.03820000       0.56870000
O        3.38170000      -0.76650000      -0.26910000
C       -0.54220000      -0.60810000      -1.98010000
O       -0.30520000      -0.81420000      -3.14210000
H        0.68260000       1.92680000       0.27700000
H       -0.94600000       1.72420000      -0.42040000
H       -0.71310000       1.59380000       1.34030000
H        1.29070000       0.24500000      -1.25280000
H        0.47980000      -2.50270000      -0.20350000
H        1.50610000      -2.23020000      -1.61780000
H        2.10440000      -1.21660000       1.20530000
H        3.94390000      -2.91050000       1.20890000
H        2.36120000      -3.70540000       1.07360000
H        3.38700000      -3.53210000      -0.35780000
H        3.76170000      -1.16860000      -1.05880000
H       -1.58410000      -0.54050000      -1.58830000
