13
Properties=species:S:1:pos:R:3 gdb_47998=T pbc="F F F"
O       -0.12910000       0.01840000       0.45140000
C        0.02270000       1.05940000      -0.14390000
C        1.23830000       1.83680000      -0.11610000
C        2.23770000       2.51390000      -0.11800000
C        3.43210000       3.30190000      -0.07580000
N        3.72750000       4.15500000      -1.24130000
C        3.38220000       4.81050000       0.02210000
C        2.12660000       5.51990000       0.07080000
N        1.13000000       6.09950000       0.14470000
H       -0.78000000       1.50040000      -0.76700000
H        4.27200000       2.84590000       0.44370000
H        4.73220000       4.20320000      -1.39340000
H        4.17170000       5.27100000       0.61030000
