18
Properties=species:S:1:pos:R:3 gdb_23083=T pbc="F F F"
C       -0.04680000       1.53930000      -0.06530000
C        0.02260000       0.05140000       0.01580000
C        0.57210000      -1.03540000      -0.85780000
C        1.30960000      -1.70070000       0.30450000
C        0.30200000      -0.95470000       1.23050000
C       -1.03230000      -1.58410000       0.86420000
N       -1.98720000      -2.15610000       1.46860000
O       -1.66590000      -2.35540000       2.83630000
C       -0.93710000      -1.02960000      -0.50470000
H        0.91170000       2.00130000       0.19750000
H       -0.30250000       1.85860000      -1.08130000
H       -0.80880000       1.94040000       0.61220000
H        0.87390000      -0.96180000      -1.89580000
H        1.32540000      -2.79390000       0.36660000
H        2.32390000      -1.30580000       0.40980000
H        0.53690000      -0.69720000       2.25850000
H       -2.46650000      -2.77740000       3.16390000
H       -1.70380000      -0.93780000      -1.26110000
