20
Properties=species:S:1:pos:R:3 gdb_72908=T pbc="F F F"
C       -0.21400000       1.50260000       0.01520000
C        0.03150000       0.00110000      -0.03220000
C       -1.14340000      -0.89510000       0.42980000
O       -0.34260000      -1.50850000       1.46010000
C        0.79400000      -0.66060000       1.15380000
C        2.00360000      -1.36270000       0.56760000
C        1.73130000      -2.53190000      -0.30440000
N        2.00070000      -1.22650000      -0.91050000
C        0.80140000      -0.45320000      -1.30060000
H        0.72710000       2.05660000      -0.07210000
H       -0.86220000       1.82060000      -0.80960000
H       -0.69680000       1.79970000       0.95170000
H       -1.99500000      -0.34810000       0.85440000
H       -1.51760000      -1.62680000      -0.29780000
H        1.05180000      -0.02570000       2.00840000
H        2.96320000      -1.24720000       1.06270000
H        2.50440000      -3.27720000      -0.46890000
H        0.71620000      -2.92010000      -0.29960000
H        0.17450000      -1.04470000      -1.97720000
H        1.14750000       0.42150000      -1.86120000
