18
Properties=species:S:1:pos:R:3 gdb_45508=T pbc="F F F"
O        0.07920000      -0.03080000      -0.28570000
C       -0.02000000       1.15590000      -0.09950000
C       -1.30620000       2.00710000      -0.03290000
C       -0.78780000       3.45110000      -0.11380000
C       -1.30860000       4.61600000       0.74520000
C       -0.02400000       5.45130000       1.03570000
C        1.08650000       4.41130000       0.99930000
C        0.63360000       3.31860000       0.38640000
N        1.04820000       2.01950000       0.14590000
H       -2.00050000       1.70930000      -0.81950000
H       -1.78300000       1.79490000       0.93250000
H       -0.75730000       3.75090000      -1.17190000
H       -2.09790000       5.19780000       0.26220000
H       -1.70640000       4.22690000       1.68950000
H        0.11850000       6.23290000       0.27450000
H       -0.08210000       5.96890000       1.99940000
H        2.06880000       4.56210000       1.42720000
H        1.97220000       1.65350000       0.31530000
