18
Properties=species:S:1:pos:R:3 gdb_67856=T pbc="F F F"
C       -0.15870000       1.68540000       0.07860000
C        0.04520000       0.19270000       0.09630000
C       -1.01190000      -0.73830000      -0.43000000
C       -1.01940000      -1.89800000       0.23140000
C        0.01020000      -1.93630000       1.34040000
C        0.72200000      -0.59220000       1.20860000
N        1.41860000      -0.31100000      -0.02810000
C        1.88180000      -1.24570000      -0.93230000
O        2.46750000      -2.26130000      -0.64000000
H        0.68210000       2.19530000       0.55480000
H       -0.24040000       2.05670000      -0.94910000
H       -1.07960000       1.95480000       0.60590000
H       -1.65890000      -0.47270000      -1.25800000
H       -1.64890000      -2.74850000      -0.00400000
H       -0.45800000      -2.03150000       2.32760000
H        0.70590000      -2.77450000       1.22620000
H        1.12200000      -0.10390000       2.09210000
H        1.72020000      -0.92130000      -1.97880000
