16
Properties=species:S:1:pos:R:3 gdb_98955=T pbc="F F F"
C       -0.00230000       1.37520000       0.35250000
C       -0.18860000       0.00070000      -0.28530000
C        0.87090000      -0.31370000      -1.31220000
O        1.74090000       0.40280000      -1.69790000
O        0.71660000      -1.63340000      -1.74120000
C        1.32980000      -2.08190000      -2.88100000
N        1.34790000      -1.43860000      -3.96290000
C        1.90930000      -3.46620000      -2.68310000
O        2.42580000      -4.06940000      -3.58610000
H        0.95750000       1.44030000       0.87130000
H       -0.02100000       2.16230000      -0.40490000
H       -0.79920000       1.56920000       1.07500000
H       -0.18220000      -0.80220000       0.46090000
H       -1.15890000      -0.08130000      -0.79090000
H        1.83250000      -2.00980000      -4.66200000
H        1.82100000      -3.87350000      -1.65660000
