17
Properties=species:S:1:pos:R:3 gdb_83=T pbc="F F F"
C        0.05880000       1.56170000      -0.01950000
C       -0.01540000       0.03180000       0.00310000
C       -1.44100000      -0.54860000       0.05030000
C       -1.40780000      -2.07230000      -0.13010000
C       -2.18400000      -0.17660000       1.34110000
H        1.09440000       1.90230000      -0.11900000
H       -0.50690000       1.97220000      -0.86390000
H       -0.34410000       2.00630000       0.89580000
H        0.48930000      -0.36010000      -0.88950000
H        0.55250000      -0.35140000       0.86270000
H       -2.00030000      -0.12150000      -0.79560000
H       -0.85500000      -2.55070000       0.68780000
H       -2.41790000      -2.49540000      -0.13720000
H       -0.91930000      -2.35360000      -1.06910000
H       -3.19100000      -0.60700000       1.35140000
H       -1.65200000      -0.56010000       2.22060000
H       -2.28790000       0.90580000       1.46080000
