18
Properties=species:S:1:pos:R:3 gdb_85316=T pbc="F F F"
C       -0.00490000       1.61020000      -0.05420000
C        0.04880000       0.08410000      -0.01830000
N        0.81400000      -0.48470000      -1.12420000
C        1.55800000      -1.60150000      -0.83740000
O        2.11270000      -2.32000000      -1.63710000
C        1.57760000      -1.72850000       0.69550000
O        2.79420000      -1.18710000       1.25140000
C        2.10720000       0.01000000       1.67980000
C        0.73890000      -0.54190000       1.21310000
H        0.99640000       2.04860000      -0.04930000
H       -0.51940000       1.95760000      -0.95610000
H       -0.55900000       1.99150000       0.80950000
H       -0.98690000      -0.28880000      -0.05120000
H        0.61680000      -0.25560000      -2.08690000
H        1.38610000      -2.75340000       1.02380000
H        2.20570000       0.16490000       2.75990000
H        2.47360000       0.90100000       1.15740000
H        0.03480000      -0.73620000       2.02110000
