19
Properties=species:S:1:pos:R:3 gdb_102030=T pbc="F F F"
C        0.04240000       1.47390000       0.07040000
C       -0.03650000      -0.05000000      -0.01690000
N       -1.41920000      -0.56200000      -0.00940000
C       -2.01510000      -0.83320000      -1.22170000
O       -3.15280000      -1.20240000      -1.40890000
C       -2.06190000      -0.69290000       1.24070000
N       -1.42170000      -0.34170000       2.28230000
C       -3.48470000      -1.26010000       1.28290000
O       -3.91930000      -1.41280000       2.62200000
H        1.08940000       1.79250000       0.05240000
H       -0.47100000       1.94640000      -0.77320000
H       -0.40810000       1.82440000       1.00060000
H        0.43470000      -0.40680000      -0.93720000
H        0.48190000      -0.50300000       0.82870000
H       -1.30500000      -0.67090000      -2.05370000
H       -2.03020000      -0.48850000       3.08910000
H       -4.17370000      -0.56810000       0.79350000
H       -3.54180000      -2.19520000       0.71890000
H       -3.57320000      -2.24660000       2.95560000
