21
Properties=species:S:1:pos:R:3 gdb_115316=T pbc="F F F"
C       -0.02610000       1.48010000       0.12030000
C       -0.04680000      -0.04700000      -0.02140000
N       -1.37190000      -0.63420000       0.00860000
C       -2.23430000      -0.60610000       1.17600000
C       -3.50610000      -1.29820000       0.64700000
N       -3.42660000      -1.03240000      -0.77720000
C       -4.35040000      -1.63030000      -1.71080000
C       -2.11280000      -0.77960000      -1.15170000
O       -1.69180000      -0.70020000      -2.28970000
H        1.00390000       1.84810000       0.07740000
H       -0.58960000       1.94750000      -0.69250000
H       -0.45560000       1.80810000       1.07240000
H        0.38840000      -0.33540000      -0.98150000
H        0.55490000      -0.50920000       0.77090000
H       -1.78960000      -1.14020000       2.02190000
H       -2.45450000       0.42190000       1.50070000
H       -3.48580000      -2.38110000       0.85270000
H       -4.41950000      -0.88770000       1.08880000
H       -5.35390000      -1.20800000      -1.58870000
H       -3.98870000      -1.41570000      -2.71780000
H       -4.41810000      -2.72200000      -1.58380000
