19
Properties=species:S:1:pos:R:3 gdb_30207=T pbc="F F F"
C       -0.83870000       1.19640000      -0.02710000
C        0.18960000       0.06920000       0.01300000
C        1.19160000       0.07130000      -1.18690000
C        2.39080000      -0.61990000      -0.60640000
C        3.54110000      -1.24980000      -0.94460000
O        4.19400000      -1.65280000       0.18800000
C        3.43790000      -1.26550000       1.26040000
C        2.32380000      -0.63010000       0.82530000
C        1.07520000       0.05350000       1.30100000
H       -0.34810000       2.17650000       0.00290000
H       -1.44160000       1.15350000      -0.94040000
H       -1.52430000       1.14090000       0.82530000
H       -0.34040000      -0.89120000      -0.01870000
H        0.77150000      -0.41550000      -2.07220000
H        1.43370000       1.10370000      -1.47610000
H        4.02980000      -1.50040000      -1.87160000
H        3.83820000      -1.52960000       2.22530000
H        1.28850000       1.08160000       1.62620000
H        0.57470000      -0.44560000       2.13630000
