23
Properties=species:S:1:pos:R:3 gdb_123051=T pbc="F F F"
C        0.14230000       1.49260000      -0.00110000
C        0.12780000      -0.02680000       0.01130000
O        0.65780000      -0.49310000      -1.21160000
C        0.70090000      -1.90080000      -1.29940000
C        1.31900000      -2.28320000      -2.63850000
C        1.41670000      -3.78630000      -2.82090000
C        2.26150000      -4.32590000      -3.99670000
C        3.06510000      -5.05090000      -2.89890000
O        2.30360000      -4.40980000      -1.85520000
H        1.16370000       1.86520000      -0.11980000
H       -0.45950000       1.87520000      -0.83050000
H       -0.26510000       1.88650000       0.93490000
H        0.72320000      -0.41280000       0.85640000
H       -0.90110000      -0.40220000       0.14890000
H        1.29920000      -2.32580000      -0.47790000
H       -0.31630000      -2.32310000      -1.21260000
H        0.71390000      -1.86160000      -3.45120000
H        2.31890000      -1.84040000      -2.71010000
H        0.41600000      -4.24070000      -2.76110000
H        1.74110000      -4.95970000      -4.71590000
H        2.81760000      -3.55370000      -4.53250000
H        2.94420000      -6.14180000      -2.88020000
H        4.13330000      -4.81390000      -2.83280000
