17
Properties=species:S:1:pos:R:3 gdb_31882=T pbc="F F F"
C        0.28770000       1.53980000       0.14910000
C       -0.06850000       0.06130000      -0.09040000
C        0.56000000      -0.52210000      -1.31380000
C        0.03290000      -0.96050000      -2.50890000
N        1.00920000      -1.40850000      -3.35510000
C        2.14470000      -1.25220000      -2.69460000
N        1.91440000      -0.71490000      -1.44990000
C        3.44670000      -1.57100000      -3.14080000
C        4.56850000      -1.83230000      -3.49170000
H        1.36620000       1.67690000       0.28010000
H       -0.02400000       2.15700000      -0.69830000
H       -0.20690000       1.91560000       1.04980000
H        0.21160000      -0.52750000       0.79360000
H       -1.15340000      -0.04200000      -0.19230000
H       -1.00840000      -0.97480000      -2.79580000
H        2.62260000      -0.51220000      -0.76370000
H        5.55150000      -2.06780000      -3.81710000
