19
Properties=species:S:1:pos:R:3 gdb_85557=T pbc="F F F"
C        0.17460000       1.59900000      -0.09850000
C       -0.01610000       0.07690000       0.06160000
N        0.40330000      -0.64980000      -1.13980000
C        1.62540000      -1.23690000      -1.34930000
O        2.02240000      -1.60880000      -2.43810000
N        2.36770000      -1.40890000      -0.18930000
C        1.84920000      -1.15420000       1.07810000
C        0.71680000      -0.47210000       1.26810000
C        0.14460000      -0.21010000       2.63000000
H        1.23440000       1.84040000      -0.22200000
H       -0.36840000       1.96430000      -0.97700000
H       -0.20540000       2.13630000       0.77590000
H       -1.09190000      -0.11240000       0.19270000
H       -0.08300000      -0.44980000      -2.00050000
H        3.19480000      -1.96990000      -0.30330000
H        2.43320000      -1.55060000       1.90150000
H        0.77030000      -0.64850000       3.41240000
H        0.05430000       0.86300000       2.84210000
H       -0.86360000      -0.63420000       2.73050000
