18
Properties=species:S:1:pos:R:3 gdb_68336=T pbc="F F F"
O        0.07590000       1.30660000      -0.06580000
C        0.04260000      -0.06680000       0.00900000
C        0.62330000      -1.00680000      -1.07250000
C        0.02320000      -1.94460000       0.01870000
C        0.67680000      -1.01670000       1.08490000
C       -1.20320000      -0.99090000       0.01190000
O       -2.00970000      -0.89050000       1.17310000
C       -3.15320000      -1.60380000       1.19010000
N       -3.88580000      -1.59670000       2.21730000
H       -0.38890000       1.66140000       0.70090000
H        0.13560000      -0.99810000      -2.05120000
H        1.71070000      -1.01730000      -1.15880000
H        0.00770000      -3.03120000       0.01120000
H        1.76810000      -1.02670000       1.12490000
H        0.22520000      -1.01400000       2.07650000
H       -1.82310000      -0.98650000      -0.89160000
H       -3.34620000      -2.14200000       0.25180000
H       -4.71190000      -2.16950000       2.05720000
