21
Properties=species:S:1:pos:R:3 gdb_39959=T pbc="F F F"
C        0.67230000       1.43720000      -0.05690000
C        1.33450000       0.07940000      -0.16650000
C       -0.15140000       0.19090000       0.01700000
C       -0.94820000      -0.37530000       1.20030000
C       -1.74000000      -1.23170000       0.18030000
C       -1.56090000      -2.76480000       0.12580000
C       -3.08930000      -2.80530000       0.31130000
O       -3.16160000      -1.36490000       0.35070000
C       -1.21180000      -0.32920000      -0.96310000
H        0.82370000       2.00670000       0.85490000
H        0.60330000       2.04520000      -0.95360000
H        1.71120000      -0.22700000      -1.13760000
H        1.93180000      -0.26550000       0.67200000
H       -0.40310000      -0.90530000       1.98720000
H       -1.60660000       0.37070000       1.65800000
H       -1.19180000      -3.15520000      -0.82440000
H       -0.97650000      -3.19280000       0.94240000
H       -3.66260000      -3.22030000      -0.52630000
H       -3.44690000      -3.25800000       1.24390000
H       -1.95700000       0.43200000      -1.21760000
H       -0.87430000      -0.82300000      -1.87930000
