21
Properties=species:S:1:pos:R:3 gdb_77083=T pbc="F F F"
C       -0.02020000       1.48330000      -0.77470000
C        0.15640000      -0.03470000      -0.70380000
C       -1.11360000      -0.75060000      -1.15610000
C        1.47840000      -0.52730000      -1.37710000
C        2.14440000      -0.69170000       0.04070000
C        3.15300000       0.38210000       0.31310000
O        2.94330000       1.41830000       0.90780000
C        0.72970000      -0.52480000       0.67740000
O        0.57530000       0.25440000       1.82560000
H        0.88540000       2.02150000      -0.48340000
H       -0.27890000       1.78880000      -1.79470000
H       -0.82540000       1.80570000      -0.10760000
H       -1.37460000      -0.48760000      -2.18790000
H       -0.99800000      -1.83930000      -1.10860000
H       -1.96140000      -0.47610000      -0.51820000
H        1.37770000      -1.48690000      -1.88870000
H        1.96340000       0.17890000      -2.05650000
H        2.63580000      -1.65820000       0.19460000
H        4.16400000       0.18420000      -0.10770000
H        0.31650000      -1.51180000       0.91330000
H        1.19000000       0.99820000       1.74810000
