18
Properties=species:S:1:pos:R:3 gdb_133631=T pbc="F F F"
F        0.27530000       0.08100000       0.02750000
C       -0.03720000       1.38910000       0.03740000
F        1.10460000       2.06940000      -0.16710000
F       -0.83120000       1.61630000      -1.02160000
C       -0.71060000       1.79600000       1.32960000
C        0.16220000       1.54160000       2.56560000
C       -0.52520000       1.95380000       3.84910000
C       -1.48420000       1.01270000       4.53680000
C       -0.14180000       1.31450000       5.15770000
H       -0.96340000       2.85760000       1.24120000
H       -1.65090000       1.24050000       1.39800000
H        0.41570000       0.47610000       2.61060000
H        1.10890000       2.08310000       2.45400000
H       -0.78470000       3.00900000       3.89760000
H       -2.37290000       1.42390000       5.00240000
H       -1.62780000       0.02890000       4.10090000
H        0.61190000       0.53400000       5.13700000
H       -0.11200000       1.93480000       6.04650000
