21
Properties=species:S:1:pos:R:3 gdb_85047=T pbc="F F F"
C       -0.18300000       1.54460000       0.00310000
C        0.10540000       0.04550000      -0.00550000
C        0.96700000      -0.44880000      -1.18330000
C        1.64300000      -1.72370000      -0.67550000
O        2.32430000      -2.47770000      -1.32170000
C        1.31800000      -1.88430000       0.81950000
C        2.43940000      -2.54050000       1.61830000
C        0.87080000      -0.46910000       1.23470000
O        1.98460000       0.39560000       1.43240000
H        0.74630000       2.11530000       0.06830000
H       -0.71140000       1.84410000      -0.90770000
H       -0.80800000       1.82140000       0.85900000
H       -0.84810000      -0.49900000      -0.02420000
H        0.41530000      -0.63510000      -2.10840000
H        1.75930000       0.27230000      -1.41810000
H        0.42510000      -2.52870000       0.85450000
H        3.32550000      -1.89840000       1.64870000
H        2.13070000      -2.76230000       2.64480000
H        2.73800000      -3.47400000       1.13520000
H        0.22950000      -0.47940000       2.12780000
H        2.47590000       0.08630000       2.19900000
