19
Properties=species:S:1:pos:R:3 gdb_81485=T pbc="F F F"
O       -0.09820000       1.46780000       0.04080000
C        0.00030000       0.05800000       0.04580000
C       -1.40020000      -0.57910000      -0.16720000
C       -1.18770000      -0.27030000      -1.68900000
C        0.30350000      -0.59410000      -1.33950000
C        0.18310000      -2.08960000      -1.01950000
O        0.95820000      -2.58060000       0.10330000
C       -0.22760000      -2.72040000       0.92210000
C       -1.11950000      -2.09140000      -0.16680000
H        0.79370000       1.82350000      -0.02270000
H        0.60510000      -0.28580000       0.88980000
H       -2.26300000      -0.20960000       0.38660000
H       -1.69630000      -0.91250000      -2.41420000
H       -1.33620000       0.78060000      -1.92770000
H        1.13810000      -0.26250000      -1.95880000
H        0.27450000      -2.74480000      -1.89130000
H       -0.44640000      -3.77600000       1.12600000
H       -0.14160000      -2.18400000       1.87500000
H       -1.97290000      -2.68420000      -0.49730000
