20
Properties=species:S:1:pos:R:3 gdb_24421=T pbc="F F F"
C       -0.02240000       1.51540000      -0.04900000
C        1.39700000       2.10410000       0.01520000
C        2.09410000       1.78080000       1.35130000
C        1.90000000       0.33360000       1.70740000
C        0.94220000      -0.44940000       1.10070000
C       -0.00570000      -0.02490000       0.02510000
N        1.02030000      -1.70740000       1.64850000
C        2.01410000      -1.73860000       2.59880000
C        2.57730000      -0.48620000       2.65870000
H       -0.61180000       1.90800000       0.78950000
H       -0.52620000       1.83520000      -0.96740000
H        1.99140000       1.69260000      -0.81130000
H        1.35940000       3.18880000      -0.13430000
H        3.16060000       2.02830000       1.28460000
H        1.68630000       2.42910000       2.14120000
H       -1.01960000      -0.40340000       0.21190000
H        0.29750000      -0.43680000      -0.94970000
H        0.43920000      -2.48660000       1.39340000
H        2.23070000      -2.64210000       3.14590000
H        3.38570000      -0.18840000       3.31000000
