17
Properties=species:S:1:pos:R:3 gdb_52172=T pbc="F F F"
N       -0.39550000       1.09450000       0.46530000
C       -0.40400000      -0.16310000       0.38840000
O       -0.89160000      -0.75890000      -0.72640000
C       -0.97380000      -2.17600000      -0.71780000
C       -2.26810000      -2.66620000      -0.10240000
C       -2.42050000      -4.19020000       0.08590000
C       -2.43000000      -3.84830000       1.56140000
N       -2.53250000      -4.50630000       2.62070000
O       -2.28500000      -2.48640000       1.35540000
H        0.01890000       1.38480000       1.34840000
H       -0.04170000      -0.87380000       1.14080000
H       -0.93050000      -2.49000000      -1.76570000
H       -0.11830000      -2.61890000      -0.18970000
H       -3.12460000      -2.15280000      -0.54650000
H       -3.34340000      -4.63170000      -0.29150000
H       -1.56970000      -4.79570000      -0.23510000
H       -2.50070000      -3.90170000       3.44320000
