20
Properties=species:S:1:pos:R:3 gdb_95648=T pbc="F F F"
C       -0.06920000       1.53090000      -0.11060000
C        0.04920000       0.01900000      -0.02560000
O        0.76910000      -0.43110000      -1.18020000
C        0.73320000      -1.81170000      -1.27480000
O        1.30750000      -2.47800000      -0.14590000
C        0.94970000      -2.02190000       1.09760000
N        0.88810000      -2.79030000       2.09990000
C        0.76270000      -0.52110000       1.23080000
C        2.13440000       0.13650000       1.48040000
H        0.91560000       1.99850000      -0.18160000
H       -0.64460000       1.81150000      -0.99650000
H       -0.57980000       1.92310000       0.77410000
H       -0.96210000      -0.42200000      -0.06040000
H       -0.30470000      -2.16980000      -1.38630000
H        1.33300000      -2.10890000      -2.13650000
H        1.08630000      -3.75250000       1.81550000
H        0.12430000      -0.36320000       2.10430000
H        2.77630000       0.04320000       0.60040000
H        2.02360000       1.19820000       1.71590000
H        2.62890000      -0.34810000       2.32520000
