20
Properties=species:S:1:pos:R:3 gdb_64444=T pbc="F F F"
C        0.02810000       1.54730000      -0.06050000
C        0.02740000       0.01650000       0.00760000
C       -1.42070000      -0.52240000       0.06200000
C        0.73950000      -0.56040000      -1.23100000
O        0.91680000      -1.96600000      -1.10390000
C        1.73760000      -2.24320000      -0.02270000
O        1.21150000      -1.77090000       1.21910000
C        0.74830000      -0.47800000       1.25950000
N        0.81530000       0.21170000       2.31670000
H        1.04690000       1.94530000      -0.08140000
H       -0.49420000       1.88390000      -0.96300000
H       -0.47160000       1.97000000       0.81220000
H       -1.98100000      -0.17410000      -0.81250000
H       -1.43370000      -1.61460000       0.06410000
H       -1.92770000      -0.16380000       0.96130000
H        0.14090000      -0.39800000      -2.13100000
H        1.71880000      -0.07440000      -1.37290000
H        1.81690000      -3.32680000       0.07600000
H        2.73610000      -1.79480000      -0.16460000
H        1.29250000      -0.31750000       3.04970000
