15
Properties=species:S:1:pos:R:3 gdb_77238=T pbc="F F F"
O        0.04680000       0.77040000      -0.65870000
C       -0.30170000      -0.47030000      -0.11780000
C       -0.01170000      -0.70200000       1.39040000
O       -1.41540000      -0.84220000       1.68560000
C       -1.79070000      -0.55120000       0.32060000
C       -2.55650000       0.75770000       0.20430000
O       -3.31750000       0.99690000      -0.69350000
C        0.78650000      -1.93360000       1.75560000
O        1.84640000      -2.19430000       1.24660000
H        0.92790000       0.71000000      -1.04040000
H        0.02140000      -1.30370000      -0.74930000
H        0.43140000       0.18090000       1.87310000
H       -2.37630000      -1.35690000      -0.13340000
H       -2.35730000       1.47120000       1.03290000
H        0.30930000      -2.58470000       2.52030000
