19
Properties=species:S:1:pos:R:3 gdb_62229=T pbc="F F F"
C        0.13740000       1.48490000       0.28590000
C       -0.01950000      -0.01580000      -0.03300000
C       -1.46580000      -0.53610000       0.14680000
C       -1.92720000      -0.51830000       1.61050000
N       -3.26510000      -1.05900000       1.77150000
C       -4.33410000      -0.28880000       2.11800000
O       -4.29110000       0.89970000       2.35240000
C        0.43730000      -0.29350000      -1.39920000
N        0.78660000      -0.51090000      -2.47930000
H        1.16670000       1.81080000       0.11860000
H       -0.51960000       2.08460000      -0.35010000
H       -0.11760000       1.68310000       1.32940000
H        0.63750000      -0.58590000       0.63820000
H       -2.14940000       0.06840000      -0.45900000
H       -1.52220000      -1.56060000      -0.23840000
H       -1.22240000      -1.08600000       2.23250000
H       -1.97260000       0.50090000       1.99860000
H       -3.42570000      -2.03470000       1.57700000
H       -5.26740000      -0.88290000       2.16840000
