16
Properties=species:S:1:pos:R:3 gdb_8802=T pbc="F F F"
C       -0.12240000       1.36490000      -0.02990000
N       -0.02330000      -0.06840000       0.12370000
C        0.60570000      -0.63920000       1.17730000
N        1.15460000       0.05840000       2.10750000
C        0.57590000      -2.15600000       1.11310000
O        0.03270000      -2.73600000       0.19360000
C        1.23570000      -2.96690000       2.21630000
O        1.10420000      -4.33610000       1.98250000
H        0.87130000       1.82420000      -0.08140000
H       -0.66890000       1.58710000      -0.94800000
H       -0.64670000       1.81590000       0.82020000
H       -0.42290000      -0.69510000      -0.55470000
H        1.57920000      -0.53320000       2.81680000
H        2.29630000      -2.67250000       2.27520000
H        0.77800000      -2.68080000       3.17730000
H        0.61070000      -4.41340000       1.15100000
