21
Properties=species:S:1:pos:R:3 gdb_93623=T pbc="F F F"
C       -0.46300000       1.46020000      -0.03480000
C        0.04550000       0.02210000      -0.02600000
C        0.94110000      -0.37190000      -1.22580000
O        1.69230000       0.76790000      -1.62590000
C        1.84650000      -1.52660000      -0.70620000
C        1.44480000      -1.77070000       0.76410000
C        0.85260000      -0.41760000       1.23170000
C        1.88950000       0.52780000       1.63550000
C        2.74940000       1.28670000       1.99720000
H        0.36650000       2.16710000       0.01040000
H       -1.03260000       1.66460000      -0.94680000
H       -1.12120000       1.64130000       0.82140000
H       -0.81800000      -0.65600000      -0.05750000
H        0.31180000      -0.70630000      -2.06420000
H        2.30300000       0.49250000      -2.31610000
H        1.76280000      -2.43370000      -1.31130000
H        2.88540000      -1.18670000      -0.76010000
H        0.65830000      -2.53110000       0.82510000
H        2.27790000      -2.10560000       1.38540000
H        0.17340000      -0.56170000       2.08000000
H        3.50530000       1.96620000       2.30390000
