15
Properties=species:S:1:pos:R:3 gdb_42231=T pbc="F F F"
O       -0.10710000       0.02500000       0.35020000
C       -0.11740000       1.18050000      -0.00580000
C        1.10580000       2.00750000       0.03050000
N        2.07120000       2.63880000       0.10080000
N       -1.18070000       1.84770000      -0.55910000
C       -1.80650000       3.05850000      -0.03130000
C       -2.68480000       3.63060000      -1.15010000
C       -3.45720000       2.26190000      -1.19820000
C       -2.54640000       1.73950000      -0.07820000
H       -1.35480000       3.56860000       0.81110000
H       -3.31700000       4.45000000      -0.80410000
H       -2.15220000       3.93560000      -2.05250000
H       -4.49500000       2.36240000      -0.87660000
H       -3.41650000       1.69920000      -2.13240000
H       -2.76850000       1.03660000       0.71470000
