18
Properties=species:S:1:pos:R:3 gdb_93336=T pbc="F F F"
C        0.48990000       1.55320000      -0.15380000
C       -0.01070000       0.12170000       0.06440000
C        0.30560000      -0.82500000      -1.11630000
C        1.65570000      -1.44960000      -0.74460000
C        1.67880000      -1.43880000       0.78340000
O        2.40620000      -2.06380000       1.50380000
N        0.67170000      -0.53390000       1.19570000
C        0.31500000      -0.25200000       2.51000000
O        0.82120000      -0.70170000       3.50180000
H        1.55870000       1.56670000      -0.39060000
H       -0.05200000       2.02080000      -0.98180000
H        0.33680000       2.16510000       0.74020000
H       -1.08640000       0.14550000       0.26650000
H       -0.46100000      -1.60270000      -1.18070000
H        0.31840000      -0.28980000      -2.06780000
H        1.80300000      -2.46640000      -1.11120000
H        2.50350000      -0.85190000      -1.09890000
H       -0.53670000       0.45950000       2.53620000
