14
Properties=species:S:1:pos:R:3 gdb_33574=T pbc="F F F"
C        0.02710000      -1.24810000      -0.06460000
C        0.02330000      -0.04850000      -0.03510000
C       -0.00570000       1.41210000       0.02720000
C       -0.60090000       1.95600000       1.38480000
O        0.55260000       2.28960000       2.12000000
C        1.44960000       2.78010000       1.16310000
O        1.32350000       1.93380000       0.02620000
C       -0.76250000       1.95580000      -1.12200000
N       -1.36930000       2.40110000      -1.99800000
H        0.03820000      -2.31020000      -0.10010000
H       -1.22770000       2.83550000       1.18510000
H       -1.16980000       1.19960000       1.92340000
H        1.20840000       3.81990000       0.88520000
H        2.46880000       2.70550000       1.54760000
