21
Properties=species:S:1:pos:R:3 gdb_99990=T pbc="F F F"
C        0.13000000       1.56750000      -0.09440000
C       -0.01240000       0.04830000       0.03010000
C       -1.46730000      -0.45930000       0.08360000
C       -2.26440000       0.14740000       1.23720000
O       -2.17070000      -0.10230000      -1.10540000
C       -1.43740000      -2.02080000       0.19060000
O       -0.75020000      -2.46450000       1.35910000
C       -2.77140000      -2.61550000       0.09630000
C       -3.85970000      -3.12630000       0.08310000
H        1.17220000       1.84100000      -0.28440000
H       -0.47980000       1.94840000      -0.91860000
H       -0.18140000       2.08210000       0.81940000
H        0.47140000      -0.43060000      -0.83470000
H        0.51890000      -0.32200000       0.91210000
H       -2.35060000       1.22820000       1.11110000
H       -3.27320000      -0.27230000       1.26030000
H       -1.77150000      -0.05140000       2.19300000
H       -1.67270000      -0.43350000      -1.86150000
H       -0.83110000      -2.38530000      -0.65110000
H       -1.39270000      -2.50100000       2.07540000
H       -4.82260000      -3.57340000       0.05020000
