25
Properties=species:S:1:pos:R:3 gdb_116136=T pbc="F F F"
C        0.09970000       1.58020000      -0.14380000
C        0.01370000       0.05640000      -0.01330000
C       -1.42240000      -0.50790000       0.04280000
C       -1.42000000      -2.03370000      -0.14840000
C       -2.79020000      -2.64010000       0.16330000
C       -3.18210000      -2.37070000       1.62130000
C       -2.90590000      -0.94530000       2.04590000
C       -3.54730000      -0.50680000       3.33500000
C       -2.13610000      -0.12890000       1.32000000
H        1.14130000       1.90840000      -0.21800000
H       -0.42290000       1.92910000      -1.04180000
H       -0.34260000       2.09370000       0.71570000
H        0.52630000      -0.40090000      -0.86970000
H        0.55940000      -0.27180000       0.88110000
H       -1.97120000      -0.06040000      -0.80350000
H       -1.11010000      -2.27790000      -1.17120000
H       -0.66840000      -2.47530000       0.52110000
H       -3.54130000      -2.19500000      -0.50240000
H       -2.79250000      -3.71720000      -0.03660000
H       -4.24510000      -2.59910000       1.77810000
H       -2.63960000      -3.05590000       2.29120000
H       -3.24250000      -1.15430000       4.16820000
H       -3.28190000       0.52230000       3.59210000
H       -4.64170000      -0.57400000       3.27790000
H       -1.99520000       0.89250000       1.66900000
