15
Properties=species:S:1:pos:R:3 gdb_81212=T pbc="F F F"
O        0.00280000       1.43970000      -0.10510000
C        0.10160000       0.06590000      -0.00150000
C        0.04990000      -0.58050000       1.39170000
O       -1.41310000      -0.13430000       1.47500000
C       -1.22260000      -0.77280000       0.12980000
C       -1.81440000      -1.60490000      -1.00780000
C       -0.51840000      -2.50490000      -0.72330000
O        0.09350000      -3.27890000      -1.38310000
C       -0.45110000      -1.91350000       0.73810000
H       -0.68470000       1.69430000       0.52850000
H        0.86380000      -0.29230000      -0.69670000
H        0.62590000      -0.40400000       2.30220000
H       -2.71560000      -2.16470000      -0.73890000
H       -1.92170000      -1.16400000      -2.00080000
H       -1.04810000      -2.52560000       1.41930000
