18
Properties=species:S:1:pos:R:3 gdb_51263=T pbc="F F F"
O        1.94720000       4.12410000       0.19300000
C        1.06680000       3.30660000       0.04730000
N        1.22980000       1.95570000      -0.10980000
C        2.42620000       1.23020000      -0.12580000
C        2.50630000      -0.10840000      -0.17900000
C        3.91920000      -0.56120000      -0.29870000
C        4.64410000      -0.12430000      -1.55830000
C        4.74550000       0.71560000      -0.31090000
C        3.79170000       1.89480000      -0.13430000
H       -0.00790000       3.57510000       0.01940000
H        0.38020000       1.41760000      -0.19930000
H        1.65890000      -0.78520000      -0.18800000
H        4.24570000      -1.45980000       0.21330000
H        5.53220000      -0.67790000      -1.84640000
H        4.04270000       0.23260000      -2.38890000
H        5.70460000       0.75580000       0.19100000
H        3.87330000       2.64210000      -0.92940000
H        3.97000000       2.43420000       0.80150000
