14
Properties=species:S:1:pos:R:3 gdb_131392=T pbc="F F F"
O        0.09670000       1.31890000       0.12930000
C        0.07130000      -0.03080000       0.04390000
N        0.06930000      -0.68720000      -1.10220000
N        0.04100000      -1.98930000      -0.72640000
C        0.02440000      -2.16360000       0.61800000
C        0.04400000      -0.89310000       1.16280000
N        0.03940000      -0.47870000       2.49800000
C        0.01410000      -1.31410000       3.57270000
O       -0.00790000      -2.52620000       3.50870000
H        0.10940000       1.66610000      -0.77110000
H        0.03470000      -2.69900000      -1.43650000
H        0.00130000      -3.12690000       1.09410000
H        0.05630000       0.51660000       2.65980000
H        0.01590000      -0.75320000       4.52600000
