21
Properties=species:S:1:pos:R:3 gdb_103377=T pbc="F F F"
C       -0.14160000       1.34300000       0.03220000
O        0.17940000      -0.03270000       0.01590000
C        0.76680000      -0.52640000      -1.17610000
C        2.18580000      -0.00870000      -1.36070000
C        0.46790000      -2.06980000      -1.24700000
C       -0.98010000      -1.68100000      -1.68870000
C       -0.19660000      -0.57000000      -2.42060000
O        0.58330000      -1.28910000      -3.39010000
C        1.06540000      -2.41600000      -2.61030000
H        0.74700000       1.98700000      -0.01410000
H       -0.81450000       1.62280000      -0.79060000
H       -0.65260000       1.53170000       0.97960000
H        2.83730000      -0.39370000      -0.56950000
H        2.59080000      -0.29490000      -2.33160000
H        2.21170000       1.08380000      -1.31140000
H        0.67850000      -2.72510000      -0.40280000
H       -1.52350000      -2.38630000      -2.32100000
H       -1.59080000      -1.32420000      -0.86410000
H       -0.64480000       0.30310000      -2.89290000
H        2.15980000      -2.44570000      -2.63070000
H        0.67880000      -3.35370000      -3.02610000
