21
Properties=species:S:1:pos:R:3 gdb_60591=T pbc="F F F"
C        0.16600000       1.41460000      -0.26870000
C        0.09280000      -0.10490000      -0.07440000
C        0.90740000      -0.59980000       1.11030000
C        2.02660000       0.12210000       1.72820000
O        0.74090000       0.09140000       2.35360000
C       -1.35940000      -0.56660000       0.09150000
C       -2.29600000      -0.45930000      -1.13350000
O       -2.58560000      -1.87080000      -1.09730000
C       -1.66430000      -2.08020000      -0.00930000
H        1.16780000       1.73640000      -0.56730000
H       -0.52660000       1.73780000      -1.05130000
H       -0.09990000       1.93150000       0.65820000
H        0.50110000      -0.59960000      -0.96860000
H        0.91050000      -1.68640000       1.22290000
H        2.80740000      -0.43920000       2.24000000
H        2.33320000       1.09260000       1.34490000
H       -1.78050000      -0.11050000       0.99150000
H       -3.19980000       0.14890000      -1.00960000
H       -1.79930000      -0.16770000      -2.07030000
H       -0.81300000      -2.70750000      -0.31140000
H       -2.15020000      -2.54140000       0.85850000
