19
Properties=species:S:1:pos:R:3 gdb_36885=T pbc="F F F"
C       -0.17720000       0.95390000      -0.55570000
C        1.04000000       1.25310000       0.29770000
C        0.46000000      -0.12210000       0.28520000
O       -0.17900000      -0.53370000       1.46020000
C       -1.18820000      -1.47640000       1.24800000
C       -0.88160000      -3.01140000       1.25180000
C       -0.53140000      -2.92730000       2.75590000
C       -1.82660000      -2.11990000       2.49810000
O       -2.30280000      -3.20710000       1.61190000
H       -1.12650000       1.34820000      -0.21090000
H       -0.06640000       0.90820000      -1.63330000
H        1.99600000       1.41650000      -0.18640000
H        0.87920000       1.83340000       1.19900000
H        1.00910000      -0.91290000      -0.22490000
H       -1.90210000      -1.17160000       0.47580000
H       -0.47110000      -3.65330000       0.47190000
H       -0.67150000      -3.85470000       3.31230000
H        0.36240000      -2.37210000       3.04200000
H       -2.53950000      -1.69560000       3.20510000
