18
Properties=species:S:1:pos:R:3 gdb_84887=T pbc="F F F"
C       -0.01400000       1.57760000      -0.06030000
C        0.04160000       0.04690000       0.03800000
N        0.64630000      -0.50330000      -1.17830000
C        1.79840000      -1.01890000      -1.11480000
O        2.64350000      -1.13730000      -0.06100000
C        2.25260000      -0.45260000       1.13780000
C        0.75330000      -0.44420000       1.28780000
C        0.13700000      -0.39640000       2.61650000
O        0.20910000      -1.62710000       1.89570000
H        0.99000000       2.01400000      -0.04150000
H       -0.48350000       1.86620000      -1.00390000
H       -0.59200000       2.00310000       0.76570000
H       -0.98480000      -0.33580000       0.08050000
H        2.25460000      -1.46750000      -1.99550000
H        2.72660000      -0.98360000       1.96530000
H        2.64470000       0.57240000       1.09660000
H        0.76170000      -0.33450000       3.50770000
H       -0.86130000       0.02610000       2.72620000
