23
Properties=species:S:1:pos:R:3 gdb_118253=T pbc="F F F"
O       -0.07720000       1.43990000       0.08070000
C        0.01050000       0.02340000       0.15890000
C       -1.37960000      -0.54380000      -0.09670000
C       -1.43020000      -2.07330000      -0.00960000
O       -0.96660000      -2.53860000       1.25790000
C       -2.82410000      -2.62090000      -0.35180000
C       -2.90520000      -4.13220000      -0.35560000
C       -3.23670000      -4.89610000       0.89850000
C       -4.23720000      -4.82970000      -0.22900000
H        0.78780000       1.80380000       0.28950000
H        0.71440000      -0.37390000      -0.59150000
H        0.36460000      -0.30810000       1.14460000
H       -2.07690000      -0.11020000       0.63380000
H       -1.72150000      -0.21640000      -1.08570000
H       -0.70830000      -2.49320000      -0.72380000
H       -1.59640000      -2.24150000       1.92440000
H       -3.55350000      -2.21370000       0.36480000
H       -3.11620000      -2.22900000      -1.33530000
H       -2.18640000      -4.60950000      -1.01790000
H       -2.72450000      -5.83320000       1.08490000
H       -3.44990000      -4.32660000       1.79710000
H       -5.12000000      -4.21370000      -0.08930000
H       -4.41170000      -5.72230000      -0.81970000
