16
Properties=species:S:1:pos:R:3 gdb_123907=T pbc="F F F"
C       -0.00610000       1.46210000       0.00420000
C        1.47170000       1.93280000      -0.01300000
N        2.23990000       1.50180000       1.15930000
C        1.94120000       0.15290000       1.46420000
C        0.88970000      -0.52600000       0.91150000
N       -0.12880000       0.00560000       0.15940000
O        0.92650000      -1.82210000       1.23520000
N        2.05600000      -2.03660000       2.06450000
C        2.63250000      -0.86210000       2.17280000
H       -0.52780000       1.94850000       0.83820000
H       -0.51240000       1.76050000      -0.91730000
H        1.95960000       1.52530000      -0.90700000
H        1.50900000       3.02330000      -0.08170000
H        2.08280000       2.12010000       1.94810000
H       -0.37720000      -0.51470000      -0.67060000
H        3.53720000      -0.78080000       2.75980000
