16
Properties=species:S:1:pos:R:3 gdb_31928=T pbc="F F F"
C       -0.20620000       1.53150000      -0.17520000
C        0.06980000       0.02750000       0.00130000
C        0.86050000      -0.56140000      -1.11170000
C        2.08980000      -1.15070000      -1.21230000
N        2.32990000      -1.51180000      -2.51650000
C        1.26240000      -1.13860000      -3.16010000
O        0.32260000      -0.54930000      -2.36040000
C        0.92040000      -1.25240000      -4.58430000
O        1.63640000      -1.74470000      -5.42030000
H        0.72800000       2.09880000      -0.21650000
H       -0.75840000       1.71950000      -1.09970000
H       -0.80070000       1.90950000       0.66090000
H        0.61970000      -0.15140000       0.93040000
H       -0.88250000      -0.51040000       0.09050000
H        2.80660000      -1.33500000      -0.42710000
H       -0.07990000      -0.83350000      -4.82210000
