18
Properties=species:S:1:pos:R:3 gdb_9487=T pbc="F F F"
C       -0.44210000       1.39270000       0.00160000
C        0.08080000      -0.03110000      -0.08870000
C        1.42490000      -0.29100000      -0.79560000
O        1.94400000      -1.01630000       0.33700000
C        0.77880000      -0.69600000       1.15390000
C        1.17580000       0.21470000       2.31480000
C        0.11330000      -1.89980000       1.64280000
C       -0.45480000      -2.87900000       2.04790000
H        0.32270000       2.09170000       0.35250000
H       -0.77470000       1.73560000      -0.98420000
H       -1.30000000       1.45970000       0.67870000
H       -0.70260000      -0.69130000      -0.46630000
H        1.39270000      -0.90980000      -1.69920000
H        2.01480000       0.61230000      -1.00480000
H        1.69990000       1.09990000       1.94670000
H        0.29680000       0.52940000       2.88520000
H        1.84620000      -0.32830000       2.98600000
H       -0.94800000      -3.75040000       2.40220000
