18
Properties=species:S:1:pos:R:3 gdb_14279=T pbc="F F F"
C       -0.38200000       1.42250000      -0.09930000
C       -0.02330000      -0.04450000       0.02010000
C        1.33450000      -0.61860000      -0.32140000
C        2.52230000       0.31670000      -0.42540000
C        2.62990000       1.01950000       0.93870000
O        3.32240000       1.97310000       1.18040000
C        1.70530000       0.30970000       1.94240000
C        0.83610000      -0.62290000       1.12320000
H        0.43410000       2.09200000       0.18420000
H       -0.66020000       1.67000000      -1.12960000
H       -1.23680000       1.66510000       0.54140000
H       -0.84310000      -0.70010000      -0.26470000
H        1.36520000      -1.54130000      -0.88960000
H        3.45100000      -0.24460000      -0.59010000
H        2.46380000       1.06560000      -1.22150000
H        2.33580000      -0.25410000       2.64180000
H        1.16690000       1.05450000       2.53700000
H        0.51150000      -1.54860000       1.58450000
