22
Properties=species:S:1:pos:R:3 gdb_77474=T pbc="F F F"
C       -0.03760000       1.58320000      -0.31660000
C        0.14270000       0.08940000      -0.13600000
C        1.40080000      -0.69980000      -0.40740000
O        1.45770000      -1.78550000      -1.26530000
C        2.64450000       0.02030000       0.13020000
N        2.06580000      -0.04260000       1.49420000
C        2.04970000       1.11840000       2.36210000
C        0.83470000      -0.66460000       1.00440000
C        0.14080000      -1.70720000       1.83140000
H        0.88130000       2.14230000      -0.12960000
H       -0.35330000       1.81090000      -1.34180000
H       -0.80610000       1.97650000       0.35780000
H       -0.72240000      -0.48800000      -0.46410000
H        1.26800000      -1.47810000      -2.15800000
H        3.55840000      -0.57740000       0.03890000
H        2.83830000       1.02920000      -0.26100000
H        1.59660000       2.02540000       1.92940000
H        1.49780000       0.87320000       3.27570000
H        3.07620000       1.36370000       2.65680000
H       -0.44020000      -1.25620000       2.64490000
H       -0.54970000      -2.29120000       1.21580000
H        0.87310000      -2.38840000       2.27550000
