21
Properties=species:S:1:pos:R:3 gdb_35733=T pbc="F F F"
C       -0.23100000      -1.13490000      -0.39720000
C       -0.07210000       0.03820000      -0.18520000
C        0.12800000       1.45200000       0.09090000
C       -0.61530000       1.97370000       1.34640000
C        0.05600000       3.33140000       1.64810000
C        1.46130000       3.23870000       1.02050000
C        2.06850000       4.44380000       0.34340000
C        2.65240000       3.92250000       1.63470000
C        1.59250000       1.85290000       0.39060000
H       -0.37400000      -2.16900000      -0.59040000
H       -0.21330000       2.03380000      -0.77660000
H       -1.69460000       2.04760000       1.19330000
H       -0.44890000       1.26850000       2.16750000
H       -0.51260000       4.15110000       1.19500000
H        0.09410000       3.52810000       2.72400000
H        2.63340000       4.29210000      -0.57120000
H        1.51550000       5.37760000       0.37530000
H        2.49710000       4.50550000       2.53720000
H        3.61180000       3.41590000       1.59420000
H        2.01490000       1.13560000       1.10480000
H        2.22470000       1.84030000      -0.50140000
