21
Properties=species:S:1:pos:R:3 gdb_92458=T pbc="F F F"
O        0.00720000       1.42580000      -0.09790000
C        0.03450000       0.00880000       0.01070000
C        0.66600000      -0.52980000       1.33840000
C       -0.48280000      -1.34220000       1.97630000
C       -1.56230000      -0.36790000       2.49350000
C       -2.18620000       0.20140000       1.17580000
C       -1.40830000      -0.53900000       0.06700000
C       -1.18540000      -1.91380000       0.71880000
O       -0.38740000      -2.74420000      -0.10690000
H        0.91460000       1.73180000      -0.18470000
H        0.55320000      -0.42180000      -0.85330000
H        1.53350000      -1.16140000       1.13180000
H        0.98740000       0.29930000       1.97650000
H       -0.15770000      -2.07910000       2.71600000
H       -2.31210000      -0.89420000       3.09260000
H       -1.13320000       0.41340000       3.12710000
H       -3.25460000      -0.02390000       1.11280000
H       -2.06650000       1.28080000       1.08540000
H       -1.90570000      -0.55030000      -0.90370000
H       -2.13650000      -2.40900000       0.96480000
H       -0.17500000      -3.54170000       0.38750000
