19
Properties=species:S:1:pos:R:3 gdb_65609=T pbc="F F F"
C        0.22070000       1.44210000      -0.15060000
C        0.03420000      -0.07360000      -0.07080000
C        0.91800000      -0.93840000      -1.03830000
C        1.50450000      -1.60860000       0.21950000
C        2.76280000      -0.97270000       0.85650000
C        1.79180000      -0.19290000       1.78600000
N        0.59300000      -0.80890000       1.13020000
C       -1.39850000      -0.38490000      -0.18810000
N       -2.52210000      -0.62730000      -0.30950000
H        1.27930000       1.70870000      -0.19330000
H       -0.25890000       1.82090000      -1.05760000
H       -0.23750000       1.94010000       0.70890000
H        0.35280000      -1.59900000      -1.69660000
H        1.62300000      -0.35600000      -1.63700000
H        1.42350000      -2.69700000       0.27390000
H        3.42990000      -1.67130000       1.36520000
H        3.35800000      -0.35880000       0.17470000
H        1.83740000      -0.49500000       2.83600000
H        1.84160000       0.89740000       1.74940000
