14
Properties=species:S:1:pos:R:3 gdb_25829=T pbc="F F F"
N        0.28100000       1.42190000       0.15370000
C       -0.16920000       0.10300000       0.02820000
C       -1.40820000      -0.45280000      -0.01060000
N       -1.19210000      -1.83400000      -0.03560000
H       -1.92930000      -2.51670000      -0.05740000
C        0.11680000      -2.19190000      -0.03060000
N        0.71810000      -0.96320000       0.01610000
C        2.42990000      -3.86820000      -0.01430000
O        1.92350000      -4.91280000      -0.03580000
O        3.04750000      -2.87690000       0.00810000
H        0.91000000       1.69430000      -0.59460000
H       -0.48790000       2.07890000       0.18410000
H       -2.38540000      -0.00190000      -0.02800000
H        1.71990000      -0.87420000       0.07220000
