18
Properties=species:S:1:pos:R:3 gdb_124867=T pbc="F F F"
C       -0.32220000       1.38230000       0.53700000
C       -0.01510000      -0.01340000       0.03510000
C        1.33130000      -0.33780000      -0.56260000
C        0.94630000      -0.89130000       0.78880000
N       -1.14990000      -0.67730000      -0.55760000
C       -1.49620000      -0.79290000      -1.85830000
N       -2.66450000      -1.39530000      -1.98000000
C       -3.00800000      -1.62440000      -0.68260000
N       -2.13260000      -1.20760000       0.21700000
H        0.56290000       1.82390000       1.00280000
H       -0.64010000       2.03480000      -0.28300000
H       -1.12390000       1.34810000       1.28030000
H        1.37080000      -1.03110000      -1.39450000
H        2.05750000       0.46580000      -0.61150000
H        1.40990000      -0.47210000       1.67430000
H        0.70880000      -1.94580000       0.85520000
H       -0.87180000      -0.43420000      -2.66220000
H       -3.92550000      -2.11530000      -0.39330000
