17
Properties=species:S:1:pos:R:3 gdb_48996=T pbc="F F F"
O       -0.03450000      -0.10300000       0.00180000
C        0.01400000       1.08100000       0.21630000
C        1.26120000       1.92840000       0.03510000
C        2.56820000       1.12330000      -0.02370000
C        2.84530000       1.04850000      -1.56520000
C        2.22400000       2.34390000      -2.08780000
C        1.31480000       2.76450000      -1.21820000
C        0.81160000       3.93490000      -0.41370000
O        1.11000000       3.17570000       0.80280000
H       -0.87290000       1.65680000       0.56110000
H        3.35640000       1.70130000       0.46680000
H        2.49230000       0.14110000       0.44600000
H        3.91560000       1.00180000      -1.78970000
H        2.38920000       0.15260000      -2.00300000
H        2.58520000       2.86840000      -2.96450000
H        1.38500000       4.86480000      -0.48260000
H       -0.26040000       4.15790000      -0.48230000
