13
Properties=species:S:1:pos:R:3 gdb_3965=T pbc="F F F"
O       -0.09690000       1.35380000       0.11190000
N        0.05400000      -0.04700000       0.06990000
C       -1.09330000      -0.63020000      -0.04920000
C       -2.40040000       0.00940000      -0.13410000
C       -3.50610000      -0.73680000      -0.25610000
O       -3.51520000      -2.09530000      -0.30990000
C       -2.30500000      -2.72330000      -0.23270000
C       -1.13780000      -2.08070000      -0.10960000
H        0.81460000       1.64950000       0.20000000
H       -2.47840000       1.08590000      -0.09860000
H       -4.51140000      -0.34090000      -0.32500000
H       -2.42040000      -3.79750000      -0.28430000
H       -0.21400000      -2.64250000      -0.05390000
