16
Properties=species:S:1:pos:R:3 gdb_117034=T pbc="F F F"
C       -1.08840000       0.84300000       0.98480000
C       -0.07710000      -0.04470000       0.28770000
O        0.34940000      -1.04400000       1.23540000
C        1.25090000      -1.92700000       0.80390000
N        1.72900000      -1.95040000      -0.37030000
C        1.62590000      -2.93740000       1.87660000
O        2.20440000      -3.95900000       1.59060000
C        1.36840000      -2.66770000       3.36660000
O        1.37400000      -1.57590000       3.86350000
H       -0.64570000       1.32280000       1.86180000
H       -1.42980000       1.62250000       0.29750000
H       -1.95810000       0.26520000       1.30980000
H       -0.49730000      -0.54970000      -0.58850000
H        0.80350000       0.51200000      -0.04920000
H        2.37150000      -2.73990000      -0.45180000
H        1.28920000      -3.60870000       3.95100000
