16
Properties=species:S:1:pos:R:3 gdb_35189=T pbc="F F F"
C       -0.10670000      -1.18070000      -0.05900000
C       -0.03980000       0.01880000      -0.01350000
C        0.03840000       1.45190000       0.00150000
N        0.61160000       2.09460000       1.22360000
C        1.34440000       2.16570000      -0.02730000
C        2.79130000       1.64070000      -0.17470000
C        3.10130000       2.94110000      -0.94140000
O        2.22010000       2.99110000      -2.06920000
C        1.71590000       3.42380000      -0.79890000
H       -0.16360000      -2.24050000      -0.09080000
H       -0.79370000       1.96180000      -0.48000000
H        0.11850000       2.96780000       1.40290000
H        3.28680000       1.57160000       0.79630000
H        2.93030000       0.71780000      -0.74060000
H        4.03120000       3.49260000      -1.00820000
H        1.30070000       4.42380000      -0.72980000
