18
Properties=species:S:1:pos:R:3 gdb_55781=T pbc="F F F"
C        0.00620000       1.54680000      -0.16650000
C       -0.00080000       0.05380000       0.12280000
O       -0.00410000      -0.41070000       1.24350000
N       -0.00330000      -0.73520000      -1.01140000
C       -0.00950000      -2.12750000      -1.04110000
C       -0.01450000      -3.02640000      -0.05600000
C       -0.02010000      -4.40180000      -0.65610000
O       -0.01790000      -4.20810000      -2.07540000
C       -0.01140000      -2.82780000      -2.37850000
H        0.89350000       1.83150000      -0.74210000
H       -0.87620000       1.83930000      -0.74570000
H        0.00670000       2.08360000       0.78120000
H       -0.00030000      -0.26260000      -1.90160000
H       -0.01460000      -2.81880000       1.00090000
H        0.86230000      -4.99520000      -0.36880000
H       -0.90840000      -4.98730000      -0.37050000
H       -0.89710000      -2.56260000      -2.98180000
H        0.87790000      -2.57060000      -2.98010000
