16
Properties=species:S:1:pos:R:3 gdb_102927=T pbc="F F F"
O        0.13780000       1.33900000       0.21590000
C        0.05260000      -0.04540000      -0.04760000
C       -1.39380000      -0.53300000      -0.03350000
O       -1.90030000      -0.19430000       1.26380000
C       -3.11280000      -0.84470000       1.60040000
C       -3.52700000      -0.39040000       2.92940000
N       -3.87210000      -0.04730000       3.97610000
C       -2.26800000       0.17240000      -1.07280000
O       -3.17890000      -0.37590000      -1.64160000
H       -0.26810000       1.48510000       1.07840000
H        0.48580000      -0.21060000      -1.03990000
H        0.63000000      -0.63880000       0.67690000
H       -1.45020000      -1.61800000      -0.20150000
H       -3.91210000      -0.62500000       0.87970000
H       -2.97990000      -1.93700000       1.61960000
H       -2.03530000       1.24520000      -1.22260000
