21
Properties=species:S:1:pos:R:3 gdb_82182=T pbc="F F F"
C        0.02930000       1.59270000      -0.04480000
C        0.02930000       0.06110000       0.01960000
C        0.67430000      -0.60720000      -1.19310000
O        2.08030000      -0.35570000      -1.34140000
C        1.66590000      -1.59470000      -0.74400000
C        1.71370000      -1.62950000       0.77530000
C        1.84530000      -2.97700000       1.44310000
C        2.24350000      -0.36590000       1.41260000
C        0.75330000      -0.54490000       1.23300000
H        1.05000000       1.97460000      -0.13280000
H       -0.54110000       1.95280000      -0.90770000
H       -0.41910000       2.02230000       0.85640000
H       -1.01220000      -0.28870000       0.05010000
H        0.12380000      -0.68230000      -2.12950000
H        1.92330000      -2.48810000      -1.30820000
H        2.82310000      -3.43050000       1.24160000
H        1.74090000      -2.88620000       2.52850000
H        1.07640000      -3.67750000       1.09520000
H        2.62160000      -0.44910000       2.42690000
H        2.77500000       0.33370000       0.78070000
H        0.16490000      -0.68740000       2.13450000
