18
Properties=species:S:1:pos:R:3 gdb_94175=T pbc="F F F"
C        0.52240000       1.61300000      -0.26600000
C        0.00210000       0.23330000       0.10890000
N        0.47320000      -0.90990000      -0.73350000
H       -0.57490000      -2.10770000       0.30180000
H        0.69690000      -0.69340000      -1.69970000
C        1.62400000      -1.14090000       0.18070000
C        0.78050000      -0.45040000       1.29340000
O        1.42870000       0.34710000       2.21370000
C       -0.11860000      -1.46140000       2.01550000
O       -0.19500000      -1.46310000       3.22080000
O       -0.79510000      -2.31100000       1.24370000
H        1.61070000       1.62970000      -0.37170000
H        0.07460000       1.94440000      -1.20910000
H        0.25600000       2.33580000       0.51010000
H       -1.08910000       0.25830000       0.20620000
H        1.90590000      -2.18960000       0.31100000
H        2.51520000      -0.54490000      -0.04350000
H        1.09910000       0.05320000       3.08120000
