15
Properties=species:S:1:pos:R:3 gdb_2880=T pbc="F F F"
C       -0.06570000      -1.24110000      -0.07970000
C       -0.02670000      -0.04000000      -0.03880000
C        0.02240000       1.41680000       0.01700000
C       -0.62050000       2.02350000       1.30450000
C        0.22360000       3.27970000       1.62890000
C        1.52650000       3.00760000       0.91470000
C        1.42830000       2.00250000       0.04950000
H       -0.10000000      -2.30160000      -0.11700000
H       -0.49810000       1.80280000      -0.87360000
H       -1.68400000       2.23470000       1.17350000
H       -0.52420000       1.29500000       2.11370000
H       -0.24310000       4.19730000       1.24330000
H        0.34850000       3.42980000       2.70690000
H        2.41800000       3.60400000       1.07520000
H        2.21200000       1.63630000      -0.60260000
