17
Properties=species:S:1:pos:R:3 gdb_43764=T pbc="F F F"
O        0.37640000      -0.01960000       0.13120000
C        0.20670000       1.15760000       0.11440000
C       -1.00900000       2.08380000      -0.06990000
C        0.01680000       3.22190000       0.00270000
C        0.77980000       3.11670000       1.25400000
N        1.19610000       2.22030000       0.12620000
C        0.10520000       4.39400000      -0.90390000
C       -0.57990000       4.43300000      -2.21970000
N       -1.07310000       5.26160000      -1.10640000
H       -1.46460000       1.93230000      -1.05110000
H       -1.78590000       2.05260000       0.69810000
H        1.52870000       3.87350000       1.46360000
H        0.33500000       2.66570000       2.13820000
H        1.03460000       4.94940000      -0.80010000
H       -0.12720000       4.98840000      -3.03580000
H       -1.16380000       3.57280000      -2.53330000
H       -1.89530000       4.82460000      -0.69390000
