18
Properties=species:S:1:pos:R:3 gdb_14029=T pbc="F F F"
O        0.21490000       0.52410000       0.90120000
C       -0.13770000       0.12770000      -0.41870000
C       -1.49060000      -0.52990000      -0.36440000
C       -1.83250000      -1.62930000      -1.34910000
C       -1.59740000      -1.95100000       0.09390000
C       -0.52060000      -2.82450000       0.73230000
O       -1.48410000      -3.35610000       1.67000000
C       -2.55260000      -2.55870000       1.11480000
H        1.03820000       1.01980000       0.85650000
H       -0.16700000       0.99370000      -1.09860000
H        0.59860000      -0.58300000      -0.82940000
H       -2.29970000       0.13410000      -0.06960000
H       -2.84800000      -1.67860000      -1.72920000
H       -1.07400000      -1.92530000      -2.06870000
H       -0.09380000      -3.61140000       0.09600000
H        0.28650000      -2.27900000       1.23670000
H       -2.97220000      -1.86170000       1.85240000
H       -3.36020000      -3.18210000       0.70690000
