19
Properties=species:S:1:pos:R:3 gdb_88125=T pbc="F F F"
C       -0.16650000       1.54360000       0.13640000
C       -0.09510000       0.03850000       0.18940000
N        1.12860000      -0.59400000      -0.31520000
C        0.82380000      -0.69480000       1.11350000
C        1.73090000      -0.10840000       2.18110000
C        1.33030000      -0.88380000       3.46280000
N        0.72360000      -2.10060000       2.93860000
C        0.34400000      -2.02830000       1.63070000
O       -0.24770000      -2.87360000       0.98700000
H        0.81510000       1.99070000       0.31290000
H       -0.50790000       1.87200000      -0.85090000
H       -0.87020000       1.93160000       0.88100000
H       -1.02670000      -0.48390000      -0.02290000
H        0.89080000      -1.49110000      -0.74110000
H        2.77460000      -0.31090000       1.92300000
H        1.62210000       0.97000000       2.31010000
H        2.19380000      -1.11400000       4.09400000
H        0.61550000      -0.31140000       4.06950000
H        0.41420000      -2.86160000       3.52170000
