14
Properties=species:S:1:pos:R:3 gdb_62443=T pbc="F F F"
O       -0.09110000       1.37530000       0.08860000
C       -0.03050000      -0.00720000       0.01150000
C        1.06550000      -0.62870000       0.70960000
N        1.93840000      -1.14470000       1.26820000
C       -1.35600000      -0.78490000       0.01850000
N       -2.50460000      -0.02630000      -0.35800000
C       -2.26920000       0.49780000      -1.60590000
N       -1.20970000       0.08470000      -2.21060000
C       -0.51650000      -0.73860000      -1.25490000
H        0.28020000       1.73790000      -0.72590000
H       -1.48990000      -1.63480000       0.67550000
H       -3.09340000       0.43120000       0.31920000
H       -2.98200000       1.18890000      -2.04220000
H        0.07790000      -1.56160000      -1.63070000
