23
Properties=species:S:1:pos:R:3 gdb_120262=T pbc="F F F"
C       -0.01790000       1.64980000       0.20940000
C       -0.01030000       0.12920000       0.03060000
C       -1.41260000      -0.48800000       0.10790000
C       -1.43560000      -2.00640000      -0.04320000
C       -2.79020000      -2.71080000       0.11870000
O       -3.62610000      -2.30990000      -0.97690000
C       -2.67760000      -3.36440000      -1.19110000
C       -1.31850000      -2.70440000      -1.47530000
C       -1.22860000      -1.86860000      -2.74540000
H        0.99360000       2.06490000       0.15640000
H       -0.61890000       2.13630000      -0.56680000
H       -0.44330000       1.93150000       1.17920000
H        0.45380000      -0.12290000      -0.93070000
H        0.62610000      -0.32720000       0.80090000
H       -1.85580000      -0.23330000       1.08150000
H       -2.06600000      -0.03420000      -0.64540000
H       -0.69940000      -2.45800000       0.63210000
H       -3.29120000      -3.02710000       1.02720000
H       -3.06790000      -4.31240000      -1.54470000
H       -0.51600000      -3.44850000      -1.45020000
H       -2.06310000      -1.16580000      -2.80900000
H       -0.29390000      -1.30200000      -2.79450000
H       -1.26770000      -2.51520000      -3.62960000
