15
Properties=species:S:1:pos:R:3 gdb_62332=T pbc="F F F"
O        0.08790000       1.46080000       0.15960000
C       -0.03160000       0.07780000       0.00190000
C        1.03280000      -0.64830000       0.68200000
N        1.91150000      -1.19060000       1.20300000
C       -1.33860000      -0.66300000       0.05770000
C       -2.45660000      -0.06720000      -0.81560000
C       -2.12120000       1.13240000      -1.60990000
N       -1.63560000      -0.19430000      -2.07080000
C       -0.50650000      -0.71020000      -1.22150000
H        0.90770000       1.74090000      -0.26660000
H       -1.52160000      -1.42580000       0.80270000
H       -3.45610000      -0.48690000      -0.77500000
H       -2.91040000       1.49090000      -2.26510000
H       -1.43770000       1.88080000      -1.24250000
H        0.11020000      -1.49240000      -1.64640000
