11
Properties=species:S:1:pos:R:3 gdb_4257=T pbc="F F F"
O        0.03090000      -0.06240000       0.00310000
C       -0.01170000       1.13130000       0.00860000
N       -1.15860000       1.88970000       0.02870000
C       -1.27810000       3.29310000       0.03720000
O       -2.36530000       3.82150000       0.05580000
C        0.02120000       3.95770000       0.02320000
C        1.13580000       3.21990000       0.00420000
O        1.16200000       1.86520000      -0.00320000
H       -2.02450000       1.36650000       0.03840000
H        0.05530000       5.03710000       0.02860000
H        2.14100000       3.62350000      -0.00720000
