15
Properties=species:S:1:pos:R:3 gdb_19804=T pbc="F F F"
O       -0.04410000       0.00360000      -0.12100000
C       -0.04350000       1.19600000      -0.04410000
C       -1.15850000       2.26450000       0.09910000
C       -0.05540000       3.35650000       0.08270000
C        1.05830000       2.27900000      -0.00240000
C        1.42910000       2.91360000      -1.36090000
C        0.30590000       2.99710000      -2.31040000
N        0.37570000       4.00050000      -1.22860000
H       -1.94340000       2.28010000      -0.66120000
H       -1.63690000       2.19000000       1.08230000
H       -0.08970000       4.10610000       0.87010000
H        1.86940000       2.17140000       0.71610000
H        2.45040000       3.14650000      -1.64390000
H        0.51590000       3.43900000      -3.27990000
H       -0.47770000       2.24620000      -2.33430000
