18
Properties=species:S:1:pos:R:3 gdb_12808=T pbc="F F F"
C       -0.18080000       1.53210000       0.07120000
C        0.06880000       0.04430000      -0.00430000
O       -0.72410000      -0.74600000       0.91340000
C        0.69630000      -0.68540000       1.10950000
C        1.46730000      -1.97310000       0.84450000
C        2.06110000      -2.04660000      -0.57670000
C        1.14800000      -1.47040000      -1.62990000
C        0.23900000      -0.53180000      -1.36890000
H        0.64360000       2.09040000      -0.38510000
H       -1.09950000       1.79400000      -0.46590000
H       -0.29110000       1.85110000       1.11070000
H        0.98810000      -0.11740000       1.99350000
H        2.26420000      -2.08970000       1.58590000
H        0.76950000      -2.80410000       0.99150000
H        3.02250000      -1.51290000      -0.61330000
H        2.29950000      -3.08770000      -0.82020000
H        1.26460000      -1.84160000      -2.64520000
H       -0.39580000      -0.13600000      -2.15770000
