14
Properties=species:S:1:pos:R:3 gdb_1839=T pbc="F F F"
C       -0.02780000       1.47960000       0.06090000
C        0.00040000      -0.01050000      -0.02450000
C       -0.03810000      -0.79680000      -1.10530000
C        0.01390000      -2.23320000      -0.70620000
O       -0.00040000      -3.22290000      -1.40750000
N        0.08420000      -2.20940000       0.67290000
C        0.08330000      -0.87470000       1.21750000
H        0.87070000       1.86510000       0.55850000
H       -0.08920000       1.93330000      -0.93090000
H       -0.88570000       1.82670000       0.64980000
H       -0.09810000      -0.49310000      -2.14110000
H        0.13130000      -3.05290000       1.21750000
H        0.99400000      -0.65270000       1.79420000
H       -0.77200000      -0.69110000       1.88530000
