13
Properties=species:S:1:pos:R:3 gdb_25468=T pbc="F F F"
O       -0.05220000      -0.07080000      -0.00210000
C       -0.04200000       1.12960000       0.00740000
N        1.16180000       1.88300000       0.00000000
C        2.37570000       1.22530000      -0.01870000
C        3.52580000       1.93210000      -0.02580000
N        3.54440000       3.31110000      -0.01500000
C        2.41540000       3.93830000       0.00260000
C        1.08870000       3.30450000       0.01220000
O        0.03010000       3.89920000       0.02860000
H       -0.92170000       1.78340000       0.02250000
H        2.30650000       0.14550000      -0.02660000
H        4.48600000       1.43280000      -0.04050000
H        2.40840000       5.02590000       0.01140000
