14
Properties=species:S:1:pos:R:3 gdb_2491=T pbc="F F F"
O       -0.07900000       1.44380000      -0.00250000
C       -0.02910000       0.06130000       0.00900000
C        0.51130000      -0.76420000      -1.19570000
C       -0.45820000      -1.84370000      -0.72240000
C       -1.30210000      -0.87380000       0.01180000
N       -0.50500000      -1.86230000       0.78780000
C        0.43590000      -0.77410000       1.21850000
H        0.79210000       1.78430000      -0.23470000
H        0.18000000      -0.33470000      -2.14470000
H        1.58460000      -0.98410000      -1.22810000
H       -0.73920000      -2.76470000      -1.21560000
H       -2.36710000      -0.71630000       0.11190000
H        1.49180000      -1.06270000       1.29200000
H        0.08380000      -0.36990000       2.17070000
