18
Properties=species:S:1:pos:R:3 gdb_49440=T pbc="F F F"
O       -0.32790000       0.07280000      -0.07850000
C       -0.06170000       1.23140000      -0.27480000
C        1.24700000       1.90370000       0.04570000
C        1.37560000       2.85550000       1.28020000
C        0.51750000       2.36410000       2.45540000
C        1.00560000       0.90710000       2.68810000
C        2.34000000       0.84820000       1.95640000
C        2.75590000       2.17580000       1.47250000
N        2.42000000       1.08300000       0.48120000
H       -0.80550000       1.91970000      -0.74430000
H        1.54980000       2.44240000      -0.86250000
H        1.32770000       3.92530000       1.08020000
H        0.71260000       2.98520000       3.33640000
H       -0.55510000       2.42470000       2.24410000
H        1.15330000       0.69470000       3.75130000
H        0.30880000       0.16310000       2.29700000
H        3.08440000       0.12240000       2.26530000
H        3.73470000       2.63640000       1.52930000
