17
Properties=species:S:1:pos:R:3 gdb_126400=T pbc="F F F"
C        0.21390000       1.33640000      -0.50570000
C       -0.07880000       0.09790000       0.35820000
C       -1.46230000      -0.44010000       0.15560000
N       -2.37270000      -0.34060000       1.10790000
N       -3.49640000      -0.90630000       0.58220000
C       -4.69930000      -0.99940000       1.29200000
O       -4.87730000      -0.60490000       2.40730000
C       -3.29010000      -1.36090000      -0.70030000
C       -1.99400000      -1.07910000      -1.01160000
H        1.23430000       1.69180000      -0.33500000
H        0.10970000       1.11340000      -1.57240000
H       -0.47620000       2.15010000      -0.26440000
H        0.65080000      -0.68770000       0.12630000
H        0.03650000       0.34310000       1.41760000
H       -5.47020000      -1.49320000       0.67090000
H       -4.08090000      -1.83950000      -1.25650000
H       -1.48280000      -1.29610000      -1.93600000
