19
Properties=species:S:1:pos:R:3 gdb_67855=T pbc="F F F"
C       -0.02080000       1.54280000       0.01160000
C       -0.05200000       0.03290000       0.05280000
C       -1.34640000      -0.68420000      -0.19050000
C       -1.47640000      -1.76560000       0.58070000
C       -0.27560000      -1.95960000       1.48210000
C        0.65550000      -0.81540000       1.07760000
C        1.22070000      -0.74330000      -0.34460000
C        1.23400000      -1.87600000      -1.29660000
O        2.17370000      -2.12140000      -2.01890000
H        0.96230000       1.92680000       0.29960000
H       -0.24160000       1.91630000      -0.99460000
H       -0.76360000       1.96690000       0.69650000
H       -2.06840000      -0.33820000      -0.92200000
H       -2.31180000      -2.45610000       0.56210000
H       -0.55170000      -1.87840000       2.54180000
H        0.18010000      -2.95030000       1.36220000
H        1.27990000      -0.36150000       1.83870000
H        2.11490000      -0.13290000      -0.43250000
H        0.31770000      -2.49930000      -1.32520000
