16
Properties=species:S:1:pos:R:3 gdb_26453=T pbc="F F F"
C        0.03870000       1.45110000      -0.00510000
N       -0.00180000      -0.00090000      -0.00170000
C       -0.04890000      -0.67770000       1.19850000
O       -0.05930000      -0.13430000       2.28320000
C        0.00840000      -0.66880000      -1.22790000
C        0.05350000      -0.10530000      -2.48210000
N        0.04390000      -1.18600000      -3.34760000
C       -0.00510000      -2.31160000      -2.59450000
N       -0.02770000      -2.03870000      -1.30880000
H        0.95130000       1.81180000      -0.49340000
H       -0.82870000       1.86130000      -0.53520000
H        0.02340000       1.77970000       1.03310000
H       -0.07570000      -1.76610000       1.05290000
H        0.09000000       0.91000000      -2.83320000
H        0.06880000      -1.13730000      -4.35170000
H       -0.02240000      -3.30090000      -3.02570000
