17
Properties=species:S:1:pos:R:3 gdb_23347=T pbc="F F F"
O        0.03790000       1.42440000      -0.12020000
C        0.03520000       0.02850000       0.15390000
C       -1.37360000      -0.54440000       0.09520000
C       -2.02010000      -0.85400000      -1.30180000
N       -1.02110000      -2.01440000      -1.40870000
C       -1.57260000      -2.09550000       0.02300000
C       -2.94090000      -1.81420000      -0.56290000
N       -4.10190000      -2.30010000      -0.50080000
O       -4.97280000      -1.65170000      -1.41150000
H       -0.12800000       1.53730000      -1.06120000
H        0.70300000      -0.52320000      -0.51540000
H        0.41840000      -0.07230000       1.17530000
H       -2.03800000      -0.02810000       0.79150000
H       -2.23000000      -0.18620000      -2.13470000
H       -1.43230000      -2.76400000      -1.97230000
H       -1.25640000      -2.86440000       0.72540000
H       -5.80540000      -2.10580000      -1.24340000
