20
Properties=species:S:1:pos:R:3 gdb_32733=T pbc="F F F"
C        0.15510000       1.63700000       0.14710000
C        0.19220000       0.10730000       0.14060000
C        0.50920000      -0.47740000      -1.25140000
C        0.54420000      -1.96870000      -1.29910000
C       -0.28110000      -2.90520000      -1.88230000
N       -1.45850000      -2.69380000      -2.61830000
N        0.14430000      -4.18290000      -1.60980000
C        1.22080000      -4.04070000      -0.86640000
N        1.51160000      -2.73340000      -0.65280000
H        1.11580000       2.06000000      -0.16810000
H       -0.61170000       2.01620000      -0.53770000
H       -0.06880000       2.02660000       1.14490000
H        0.94100000      -0.24550000       0.86200000
H       -0.76840000      -0.29610000       0.48040000
H       -0.25360000      -0.13210000      -1.95900000
H        1.46030000      -0.05220000      -1.60690000
H       -1.35470000      -1.98760000      -3.33650000
H       -1.74580000      -3.56470000      -3.04850000
H        1.82160000      -4.84300000      -0.46540000
H        2.29220000      -2.37370000      -0.13020000
