18
Properties=species:S:1:pos:R:3 gdb_22429=T pbc="F F F"
O       -0.09750000       1.35850000       0.22000000
N        0.04120000      -0.03800000       0.12170000
C       -1.08240000      -0.61690000      -0.04870000
C       -2.41630000       0.09070000      -0.19810000
C       -3.40470000      -0.85570000      -0.88040000
C       -2.73910000      -1.64420000      -2.02770000
C       -2.35470000      -2.58350000      -0.86600000
C       -1.07560000      -2.13350000      -0.15800000
O       -3.48190000      -2.07850000      -0.09290000
H        0.81730000       1.64380000       0.31270000
H       -2.80600000       0.37760000       0.78620000
H       -2.27670000       1.01570000      -0.76640000
H       -4.38670000      -0.40430000      -1.04110000
H       -3.47230000      -2.09610000      -2.69660000
H       -1.94100000      -1.16360000      -2.59880000
H       -2.40350000      -3.66510000      -1.01300000
H       -0.17280000      -2.46840000      -0.67820000
H       -1.06730000      -2.58410000       0.84190000
