18
Properties=species:S:1:pos:R:3 gdb_8597=T pbc="F F F"
C       -0.17000000       1.61000000      -0.16400000
C        0.00550000       0.12490000       0.07900000
O        0.91660000      -0.53290000      -0.91290000
C        1.79800000      -0.79190000       0.17810000
C        2.55780000      -1.81080000       1.07840000
C        2.21590000      -0.49690000       1.94220000
C        2.72200000       0.32950000       0.74980000
C        0.78600000      -0.57270000       1.27420000
H        0.77030000       2.16080000      -0.17360000
H       -0.65830000       1.76530000      -1.13180000
H       -0.81550000       2.03300000       0.61310000
H       -0.97040000      -0.36520000       0.00880000
H        2.01850000      -2.72080000       1.34820000
H        3.62130000      -1.99590000       0.89740000
H        2.47350000      -0.36360000       2.99390000
H        3.78570000       0.25320000       0.51360000
H        2.37220000       1.35730000       0.68710000
H        0.22530000      -1.45930000       1.57740000
