22
Properties=species:S:1:pos:R:3 gdb_57804=T pbc="F F F"
C       -0.67370000       1.17530000      -1.21010000
C       -0.02880000       0.03090000      -0.40310000
C       -1.08800000      -0.97580000       0.08820000
C        1.02030000      -0.63740000      -1.17540000
C        1.89120000      -1.18520000      -1.80540000
C        2.92820000      -1.86060000      -2.59380000
N        2.50740000      -2.52820000      -3.83410000
C        1.20270000      -3.17900000      -3.86710000
C        1.44510000      -1.92010000      -4.62680000
H        0.07730000       1.90080000      -1.53300000
H       -1.17270000       0.78340000      -2.10200000
H       -1.41990000       1.69600000      -0.60140000
H        0.44690000       0.47420000       0.48330000
H       -1.60090000      -1.43940000      -0.76040000
H       -0.62990000      -1.77040000       0.68270000
H       -1.83680000      -0.46880000       0.70510000
H        3.70500000      -1.13630000      -2.86880000
H        3.41950000      -2.62030000      -1.97310000
H        1.17560000      -4.13900000      -4.37480000
H        0.56760000      -3.09840000      -2.98780000
H        0.96730000      -1.02260000      -4.24040000
H        1.59900000      -1.93970000      -5.70200000
