15
Properties=species:S:1:pos:R:3 gdb_35644=T pbc="F F F"
N        0.47280000      -1.05510000       0.21470000
C        0.22950000       0.07140000       0.13060000
C       -0.06630000       1.50910000       0.01970000
C       -0.95220000       1.97630000       1.21340000
N       -0.47480000       1.64810000       2.53630000
C        0.73440000       1.80280000       2.87210000
N        1.82870000       2.25500000       2.13290000
C        1.94460000       2.51820000       0.77710000
N        1.16430000       2.26080000      -0.19110000
H       -0.66880000       1.63450000      -0.88850000
H       -1.07210000       3.06200000       1.10990000
H       -1.94500000       1.53090000       1.09320000
H        1.02190000       1.57390000       3.89910000
H        2.66660000       2.42010000       2.67180000
H        2.88020000       3.03060000       0.54820000
