18
Properties=species:S:1:pos:R:3 gdb_84345=T pbc="F F F"
C       -0.10770000       1.56550000      -0.07420000
C        0.09470000       0.06430000       0.08830000
C        0.85900000      -0.61480000      -1.10040000
N        1.79490000      -1.58970000      -0.49890000
C        1.77990000      -1.32810000       0.75410000
N        0.97810000      -0.30570000       1.20440000
C        0.49690000      -0.23640000       2.56840000
C       -0.04710000      -1.23710000      -2.06820000
N       -0.79180000      -1.69710000      -2.82220000
H        0.85300000       2.07420000      -0.19930000
H       -0.72800000       1.76660000      -0.95310000
H       -0.61580000       1.99670000       0.79360000
H       -0.88260000      -0.42440000       0.22750000
H        1.44630000       0.14270000      -1.63950000
H        2.40240000      -1.85770000       1.47060000
H        1.25500000      -0.64580000       3.24080000
H        0.31570000       0.80220000       2.86040000
H       -0.43680000      -0.80260000       2.71040000
