20
Properties=species:S:1:pos:R:3 gdb_59034=T pbc="F F F"
C       -0.02430000       1.55540000       0.05010000
C       -0.02920000       0.01610000      -0.01740000
C       -1.46560000      -0.53740000       0.05020000
C        0.69380000      -0.48200000      -1.24040000
C        1.79330000      -1.23930000      -1.30710000
C        2.15800000      -1.49070000      -2.73700000
O        1.15740000      -0.80150000      -3.48970000
C        0.27490000      -0.19360000      -2.63190000
N       -0.72330000       0.49390000      -3.00540000
H        0.99750000       1.94810000       0.04950000
H       -0.55630000       1.97630000      -0.80610000
H       -0.51650000       1.89200000       0.96820000
H        0.52360000      -0.36460000       0.85130000
H       -2.04850000      -0.19070000      -0.80600000
H       -1.46800000      -1.63210000       0.04990000
H       -1.95560000      -0.19750000       0.96830000
H        2.36260000      -1.63140000      -0.47400000
H        3.14670000      -1.09500000      -3.00720000
H        2.14060000      -2.55550000      -3.00710000
H       -0.77330000       0.52820000      -4.02470000
