14
Properties=species:S:1:pos:R:3 gdb_25390=T pbc="F F F"
O        0.03820000      -0.03980000      -0.00160000
C        0.00660000       1.16960000       0.00880000
C        1.22410000       2.00310000       0.00220000
C        1.18820000       3.36830000       0.01420000
C        2.42580000       4.07280000       0.00620000
C        3.60910000       3.40070000      -0.01290000
C        3.68080000       1.94100000      -0.02610000
O        4.69630000       1.27130000      -0.04330000
N        2.41260000       1.33930000      -0.01690000
H       -0.94420000       1.73850000       0.02420000
H        0.23680000       3.88430000       0.02940000
H        2.41890000       5.15820000       0.01550000
H        4.56170000       3.91650000      -0.01930000
H        2.37900000       0.32530000      -0.02520000
