21
Properties=species:S:1:pos:R:3 gdb_62931=T pbc="F F F"
C       -0.10890000       1.53070000      -0.00240000
C        0.01140000       0.01490000       0.00570000
O       -1.26830000      -0.51380000       0.24450000
C        0.85070000      -0.57600000      -1.19610000
C        2.10960000      -0.40930000      -0.29450000
C        1.14210000      -0.58380000       0.90000000
O        0.80320000      -1.95620000       1.13930000
C        0.93830000      -2.78980000      -0.02260000
C        0.51940000      -2.07090000      -1.32260000
H        0.83570000       2.02600000      -0.23910000
H       -0.84810000       1.83120000      -0.75170000
H       -0.45620000       1.88650000       0.97250000
H       -1.12170000      -1.31940000       0.76080000
H        0.81050000      -0.05400000      -2.15520000
H        2.92750000      -1.12420000      -0.40120000
H        2.52370000       0.59920000      -0.32140000
H        1.36720000      -0.14300000       1.87430000
H        1.98030000      -3.12580000      -0.09760000
H        0.32630000      -3.67480000       0.17170000
H       -0.55350000      -2.18290000      -1.50480000
H        1.05070000      -2.52400000      -2.16670000
