17
Properties=species:S:1:pos:R:3 gdb_67675=T pbc="F F F"
O        0.20900000       1.38230000      -0.28100000
C        0.17160000       0.02650000      -0.13610000
C       -0.26670000      -0.86540000      -1.27130000
C        0.55020000      -2.12400000      -1.57630000
C        0.46660000      -2.95790000      -0.26750000
C       -0.10390000      -1.97660000       0.77430000
C       -1.03730000      -1.01580000       0.00130000
C        0.79020000      -0.72910000       0.97640000
O        1.46050000      -0.33250000       1.89930000
H        0.43080000       1.74880000       0.58620000
H       -0.71670000      -0.30140000      -2.08260000
H        0.12010000      -2.66490000      -2.42440000
H        1.58180000      -1.87200000      -1.83940000
H       -0.21640000      -3.80490000      -0.38920000
H        1.43640000      -3.35930000       0.03890000
H       -0.45880000      -2.42070000       1.70340000
H       -2.07610000      -0.78960000       0.19020000
