21
Properties=species:S:1:pos:R:3 gdb_83203=T pbc="F F F"
C        0.07160000       1.54720000      -0.58270000
C        0.08250000       0.10020000      -0.13270000
C        1.24070000      -0.86760000      -0.24930000
C        2.66460000      -0.34240000      -0.39840000
C        2.90030000       0.64050000       0.77450000
C        1.83350000       0.28360000       1.85740000
C        1.38900000       1.43050000       2.64270000
C        1.02620000       2.37690000       3.29020000
C        0.72010000      -0.46590000       1.11630000
H        1.03440000       2.04690000      -0.47560000
H       -0.21320000       1.60940000      -1.63920000
H       -0.65910000       2.12440000      -0.00680000
H       -0.87100000      -0.38410000      -0.33740000
H        1.03450000      -1.85300000      -0.65470000
H        3.35710000      -1.18890000      -0.33120000
H        2.84770000       0.13600000      -1.36700000
H        3.91130000       0.56230000       1.18260000
H        2.77490000       1.67730000       0.45950000
H        2.28170000      -0.44070000       2.55130000
H        0.70220000       3.21020000       3.86260000
H        0.12380000      -1.14330000       1.71810000
