20
Properties=species:S:1:pos:R:3 gdb_92103=T pbc="F F F"
C       -0.05490000       1.50400000       0.05890000
C        0.07660000       0.01360000      -0.04850000
C       -0.10320000      -0.78640000      -1.33460000
C       -0.67390000      -1.91110000      -0.43340000
C        0.37410000      -2.94170000      -0.03290000
C        1.44850000      -2.08080000       0.68180000
O        2.56230000      -1.73440000      -0.13870000
C        0.67750000      -0.81740000       1.02960000
N       -0.77860000      -0.95030000       0.75520000
H        0.82290000       2.00080000      -0.37050000
H       -0.94140000       1.85860000      -0.47840000
H       -0.14470000       1.81600000       1.10370000
H       -0.87630000      -0.34090000      -1.96640000
H        0.78500000      -1.00190000      -1.93250000
H       -1.64160000      -2.32330000      -0.71880000
H       -0.05840000      -3.66480000       0.66730000
H        0.79090000      -3.49050000      -0.88360000
H        1.80320000      -2.57320000       1.59750000
H        3.09080000      -2.52830000      -0.26840000
H        0.90920000      -0.30940000       1.96030000
