16
Properties=species:S:1:pos:R:3 gdb_77300=T pbc="F F F"
O       -0.17370000       1.25980000       0.49250000
C       -0.22710000      -0.08370000       0.12830000
C       -1.57980000      -0.76370000      -0.29140000
C       -0.83700000      -1.53740000      -1.41040000
C        0.27410000      -0.49310000      -1.25810000
O        1.04930000       0.03800000      -2.00220000
O       -2.20640000      -1.60630000       0.65110000
C       -2.87270000      -0.98450000       1.65400000
N       -3.43260000      -1.67380000       2.54800000
H        0.25470000       1.73700000      -0.22960000
H        0.22580000      -0.71960000       0.90430000
H       -2.27850000      -0.02210000      -0.69510000
H       -0.53020000      -2.52720000      -1.05890000
H       -1.30870000      -1.62360000      -2.38930000
H       -2.85280000       0.11040000       1.57980000
H       -3.89260000      -1.06360000       3.22060000
