21
Properties=species:S:1:pos:R:3 gdb_95766=T pbc="F F F"
C        0.15660000       1.53410000      -0.01040000
C       -0.02960000       0.03990000       0.01580000
C       -1.19970000      -0.61030000      -0.05170000
C       -2.56090000       0.03180000      -0.11030000
C       -1.21880000      -2.12700000      -0.03490000
O       -2.18650000      -2.57220000      -0.98700000
C        0.16050000      -2.69310000      -0.37600000
O        1.15640000      -2.08830000       0.41900000
C        1.27990000      -0.71140000       0.13020000
H        0.91050000       1.81170000      -0.75860000
H       -0.75710000       2.07810000      -0.24940000
H        0.52870000       1.90270000       0.95480000
H       -2.52410000       1.11660000      -0.00720000
H       -3.06730000      -0.21570000      -1.04800000
H       -3.19820000      -0.35850000       0.69360000
H       -1.50960000      -2.46440000       0.97510000
H       -2.32640000      -3.51360000      -0.84520000
H        0.20760000      -3.76940000      -0.17690000
H        0.34470000      -2.53250000      -1.45080000
H        1.86080000      -0.56760000      -0.80120000
H        1.88200000      -0.28360000       0.94190000
