21
Properties=species:S:1:pos:R:3 gdb_86914=T pbc="F F F"
O       -0.03790000       1.52960000       0.21160000
C       -0.02860000       0.14120000      -0.01350000
C        0.23670000      -0.73220000       1.24160000
N       -1.22590000      -0.88530000       1.38940000
C       -1.74650000      -2.14420000       1.88820000
C       -3.25770000      -2.16150000       1.90600000
C       -3.98240000      -2.78480000       3.04100000
N       -3.99130000      -1.32300000       2.86320000
C       -1.42420000      -0.53570000      -0.03560000
H       -0.61810000       1.69570000       0.96370000
H        0.61610000      -0.02630000      -0.87660000
H        0.75250000      -1.67460000       0.99080000
H        0.74800000      -0.25400000       2.08450000
H       -1.38020000      -3.00260000       1.28760000
H       -1.36660000      -2.28610000       2.90900000
H       -3.72390000      -2.19560000       0.92240000
H       -4.93950000      -3.27220000       2.87850000
H       -3.39010000      -3.21330000       3.84620000
H       -3.32870000      -0.88600000       3.50010000
H       -2.28610000       0.10430000      -0.24980000
H       -1.44870000      -1.41510000      -0.70160000
