14
Properties=species:S:1:pos:R:3 gdb_8989=T pbc="F F F"
O       -0.19250000      -0.05880000      -0.21340000
C       -0.01040000       1.12750000      -0.13430000
C        1.34000000       1.80470000      -0.16510000
C        1.40320000       2.89150000      -1.24320000
C        2.58840000       3.83110000      -1.06540000
O        3.30730000       3.81310000      -0.09130000
C        2.79210000       4.77410000      -2.15120000
C        2.94150000       5.54510000      -3.06330000
H       -0.86940000       1.83280000      -0.02400000
H        1.50840000       2.27750000       0.81150000
H        2.11770000       1.05070000      -0.30590000
H        1.44530000       2.46230000      -2.25130000
H        0.49700000       3.51560000      -1.23230000
H        3.09030000       6.23390000      -3.85960000
