20
Properties=species:S:1:pos:R:3 gdb_64220=T pbc="F F F"
C       -0.11500000       1.57230000      -0.04260000
C       -0.00390000       0.05550000      -0.01120000
O       -1.21970000      -0.56360000      -0.37920000
C        1.27230000      -0.53920000      -0.66480000
O        1.78800000      -0.95090000       0.62100000
C        0.55240000      -0.59780000       1.28690000
C        0.78650000       0.22980000       2.52400000
C        1.91770000      -0.09610000       3.42400000
N        1.94810000       1.12800000       2.59740000
H        0.79420000       2.05510000       0.32210000
H       -0.29080000       1.91620000      -1.07000000
H       -0.95140000       1.90700000       0.57830000
H       -1.59750000      -0.07740000      -1.11960000
H        1.05790000      -1.39670000      -1.31320000
H        1.95150000       0.15580000      -1.17230000
H       -0.03790000      -1.49170000       1.53120000
H       -0.12500000       0.63520000       2.96030000
H        1.82590000       0.06960000       4.49340000
H        2.56790000      -0.91700000       3.13570000
H        2.53590000       0.92440000       1.78950000
