18
Properties=species:S:1:pos:R:3 gdb_17360=T pbc="F F F"
C        0.08670000       1.16230000       0.74070000
C        0.07620000       0.02680000      -0.26830000
O        1.05260000      -0.24910000      -0.93130000
C       -1.21150000      -0.76810000      -0.36270000
C       -1.34560000      -1.84580000      -1.48250000
C       -1.50660000      -2.92870000      -0.40600000
C       -0.30830000      -2.94960000       0.49830000
C       -1.35620000      -1.88740000       0.70250000
H        1.09550000       1.56410000       0.84290000
H       -0.58920000       1.95860000       0.40680000
H       -0.28170000       0.82050000       1.71400000
H       -2.07150000      -0.09260000      -0.33220000
H       -2.24380000      -1.69520000      -2.08470000
H       -0.47910000      -1.94480000      -2.14000000
H       -2.20120000      -3.75810000      -0.45390000
H       -0.30720000      -3.73180000       1.25060000
H        0.67480000      -2.69080000       0.11480000
H       -1.90240000      -1.78600000       1.63240000
