17
Properties=species:S:1:pos:R:3 gdb_52188=T pbc="F F F"
N       -0.10900000       1.21750000      -0.54530000
C       -0.07930000       0.03320000      -0.11280000
O       -1.15530000      -0.76550000      -0.26770000
C       -1.01970000      -2.10410000       0.21260000
C       -2.37730000      -2.74720000       0.13150000
C       -2.85440000      -3.34220000      -1.15630000
C       -2.49880000      -4.26110000       0.00360000
C       -1.32150000      -5.08140000      -0.07130000
N       -0.37070000      -5.73880000      -0.12650000
H        0.77270000       1.68400000      -0.34320000
H        0.75910000      -0.45280000       0.40560000
H       -0.29370000      -2.65680000      -0.39690000
H       -0.65700000      -2.09980000       1.24920000
H       -3.12720000      -2.28480000       0.76510000
H       -3.90320000      -3.26190000      -1.41490000
H       -2.17360000      -3.33000000      -1.99960000
H       -3.32070000      -4.72500000       0.53760000
