15
Properties=species:S:1:pos:R:3 gdb_50489=T pbc="F F F"
O       -0.10000000      -0.02640000       0.00120000
C       -0.02470000       1.18030000       0.01020000
N        1.15590000       1.88410000       0.00240000
C        1.27160000       3.35820000       0.01310000
C        2.80430000       3.62040000      -0.00210000
C        3.39450000       2.21630000      -0.02050000
C        2.40960000       1.30030000      -0.01690000
C        4.77980000       1.95000000      -0.03850000
N        5.92630000       1.77450000      -0.05300000
H       -0.90270000       1.85240000       0.02590000
H        0.77330000       3.78070000      -0.86360000
H        0.79330000       3.76630000       0.90750000
H        3.10990000       4.19680000      -0.88020000
H        3.12980000       4.18200000       0.87840000
H        2.47500000       0.22280000      -0.02660000
