12
Properties=species:S:1:pos:R:3 gdb_21712=T pbc="F F F"
N       -0.00250000       1.34440000       0.08960000
C       -0.07760000       0.00760000      -0.06340000
N       -1.15430000      -0.64550000       0.19800000
C       -1.10340000      -2.02070000       0.12730000
N       -0.03680000      -2.77150000       0.30290000
O       -0.46480000      -4.06680000       0.16090000
N       -1.80830000      -4.12460000      -0.09270000
C       -2.21400000      -2.88920000      -0.10960000
H        0.79040000       1.85920000      -0.24700000
H       -0.82500000       1.85170000       0.37440000
H        0.84440000      -0.46570000      -0.41460000
H       -3.24630000      -2.63320000      -0.28860000
