12
Properties=species:S:1:pos:R:3 gdb_132699=T pbc="F F F"
O        0.03650000       1.30800000       0.15060000
C        0.05400000      -0.02940000       0.05880000
N        0.06510000      -0.56980000      -1.15610000
C        0.08290000      -1.90640000      -1.21380000
C        0.08970000      -2.69880000      -0.07560000
O        0.10770000      -4.05460000      -0.14220000
C        0.07650000      -1.98430000       1.12490000
F        0.08240000      -2.69370000       2.25590000
N        0.05900000      -0.68420000       1.22290000
H        0.03510000       1.64040000      -0.75710000
H        0.09220000      -2.36890000      -2.19660000
H        0.10980000      -4.40030000       0.75840000
