17
Properties=species:S:1:pos:R:3 gdb_36186=T pbc="F F F"
C       -0.81990000      -0.17060000      -1.12450000
C       -0.14350000       0.27490000      -0.23710000
C        0.68150000       0.82980000       0.82930000
C        1.72770000       1.78010000       0.31940000
O        2.52680000       2.46910000       1.28330000
C        2.96060000       3.32340000       0.18370000
C        3.86180000       2.38930000      -0.66380000
C        2.56610000       1.63530000      -0.96480000
C        1.72150000       2.88200000      -0.68210000
H       -1.42290000      -0.57120000      -1.90140000
H        0.04980000       1.35790000       1.55520000
H        1.17720000       0.01960000       1.38100000
H        3.25160000       4.32250000       0.50030000
H        4.24410000       2.89400000      -1.55480000
H        4.67040000       1.87970000      -0.13030000
H        2.37540000       0.85940000      -1.69400000
H        0.94780000       3.39370000      -1.23640000
