18
Properties=species:S:1:pos:R:3 gdb_80935=T pbc="F F F"
O       -0.05030000       1.45580000      -0.07620000
C        0.01510000       0.05350000      -0.00020000
C       -0.03440000      -0.65570000       1.39550000
C       -1.50220000      -0.13960000       1.54020000
C       -1.37260000      -0.64900000       0.05580000
O       -2.32670000      -0.71780000      -0.93080000
C       -0.62240000      -1.85310000       0.63080000
C       -0.07550000      -3.09920000       0.08150000
N       -1.17440000      -3.10310000       1.09830000
H        0.83510000       1.80960000       0.04950000
H        0.73320000      -0.36350000      -0.71730000
H        0.74220000      -0.67190000       2.15740000
H       -2.16010000      -0.72300000       2.18570000
H       -1.61920000       0.93470000       1.67460000
H       -2.56480000       0.18230000      -1.18010000
H       -0.37730000      -3.44980000      -0.90150000
H        0.91560000      -3.41900000       0.39480000
H       -0.79470000      -3.34410000       2.01150000
