27
Properties=species:S:1:pos:R:3 gdb_117656=T pbc="F F F"
C       -0.12740000       1.65930000      -0.03830000
C        0.02330000       0.14050000       0.10180000
C       -1.32530000      -0.58300000      -0.00560000
C       -1.31050000      -2.13540000       0.02670000
C       -0.66730000      -2.68360000      -1.26110000
C       -0.53200000      -2.64880000       1.25260000
C       -2.80350000      -2.59100000       0.09650000
C       -3.05400000      -4.09440000      -0.05180000
O       -3.44620000      -2.10510000       1.27670000
H        0.83750000       2.16760000       0.05610000
H       -0.55140000       1.92690000      -1.01270000
H       -0.79460000       2.06280000       0.73150000
H        0.71770000      -0.22070000      -0.66710000
H        0.49320000      -0.08290000       1.06690000
H       -1.97720000      -0.23830000       0.80450000
H       -1.81380000      -0.27070000      -0.94000000
H        0.32950000      -2.25960000      -1.41380000
H       -0.55230000      -3.77110000      -1.22960000
H       -1.27040000      -2.43360000      -2.14180000
H       -0.91650000      -2.21630000       2.18280000
H       -0.58130000      -3.73970000       1.33510000
H        0.52660000      -2.38360000       1.18470000
H       -3.32810000      -2.07920000      -0.72090000
H       -2.53810000      -4.67230000       0.72400000
H       -4.12610000      -4.28640000       0.04600000
H       -2.72780000      -4.47320000      -1.02340000
H       -3.14790000      -2.64670000       2.01490000
