19
Properties=species:S:1:pos:R:3 gdb_113155=T pbc="F F F"
C        0.14410000       1.05960000      -0.79310000
C       -0.06700000       0.08670000       0.34620000
O        0.64880000       0.04630000       1.32160000
C       -1.28570000      -0.82490000       0.27660000
C       -2.19290000      -0.72990000       1.48480000
O       -1.92210000      -0.93160000      -1.00310000
C       -1.22130000      -2.07560000      -0.50470000
C        0.00450000      -2.55760000      -1.23400000
O       -0.42830000      -3.45340000      -2.24360000
H        1.10910000       1.55490000      -0.68070000
H        0.05760000       0.57020000      -1.76500000
H       -0.65620000       1.80990000      -0.76280000
H       -2.62730000       0.27240000       1.56260000
H       -3.00830000      -1.45260000       1.40900000
H       -1.61640000      -0.92140000       2.39300000
H       -1.87570000      -2.88950000      -0.18760000
H        0.55810000      -1.70650000      -1.65420000
H        0.66260000      -3.05690000      -0.50430000
H        0.34900000      -3.83260000      -2.66410000
