21
Properties=species:S:1:pos:R:3 gdb_105989=T pbc="F F F"
C       -0.27610000       1.46560000      -0.04490000
C        0.15520000      -0.00650000       0.02470000
C        0.83360000      -0.48430000      -1.22010000
C        2.15150000      -0.02510000      -1.92870000
C        1.56380000      -0.40160000      -3.27930000
C        2.34790000      -1.42960000      -2.47860000
C        1.03110000      -1.89380000      -1.77480000
C        0.60740000      -3.22170000      -1.23830000
C        0.24940000      -0.85930000      -2.58460000
H        0.58570000       2.11990000      -0.21370000
H       -0.98110000       1.62800000      -0.86630000
H       -0.75790000       1.78090000       0.88590000
H        0.82240000      -0.15110000       0.88620000
H       -0.72330000      -0.63760000       0.21360000
H        2.89110000       0.72600000      -1.68230000
H        1.76790000       0.01080000      -4.25850000
H        3.26370000      -1.95000000      -2.72840000
H        1.28500000      -3.57470000      -0.45130000
H       -0.39870000      -3.16550000      -0.80820000
H        0.58610000      -3.98430000      -2.02630000
H       -0.78430000      -0.88160000      -2.90740000
