22
Properties=species:S:1:pos:R:3 gdb_59668=T pbc="F F F"
C        0.87000000      -0.46190000      -1.29240000
C        0.07250000       0.03910000      -0.08130000
C       -0.07100000       1.56870000      -0.11140000
C       -1.31040000      -0.60770000       0.01970000
O       -2.08040000      -0.49850000      -1.20670000
C       -2.30250000      -1.92660000      -1.27610000
C       -1.47230000      -2.13160000      -0.01670000
C       -0.54590000      -3.20370000       0.39600000
N       -1.84370000      -3.01430000       1.07840000
H        1.85530000       0.01300000      -1.32760000
H        1.02090000      -1.54480000      -1.26230000
H        0.34170000      -0.21960000      -2.21880000
H        0.60920000      -0.23860000       0.83900000
H       -0.65380000       1.87890000      -0.98480000
H       -0.58110000       1.94180000       0.78300000
H        0.90840000       2.05380000      -0.16820000
H       -1.86330000      -0.15260000       0.85750000
H       -3.36180000      -2.18970000      -1.17020000
H       -1.90500000      -2.35740000      -2.20300000
H       -0.46790000      -4.11550000      -0.19080000
H        0.36680000      -2.92280000       0.91630000
H       -1.70780000      -2.54650000       1.97250000
