20
Properties=species:S:1:pos:R:3 gdb_81495=T pbc="F F F"
C       -0.16130000       1.62970000       0.15700000
C        0.01980000       0.11860000       0.11820000
C        1.17140000      -0.55280000      -0.70310000
C        2.15740000      -0.07730000       0.40430000
C        0.91470000      -0.63140000       1.16150000
C        0.94260000      -1.85540000       0.16210000
C       -0.28200000      -2.75680000      -0.04450000
C        2.11010000      -2.73340000       0.28600000
N        2.99320000      -3.47520000       0.37650000
H        0.76290000       2.19070000       0.30760000
H       -0.60930000       1.97670000      -0.78070000
H       -0.84910000       1.90320000       0.96470000
H       -0.96110000      -0.33260000      -0.03580000
H        1.32280000      -0.53170000      -1.78370000
H        3.08860000      -0.63460000       0.50900000
H        2.33920000       0.99280000       0.47440000
H        0.76860000      -0.70130000       2.24070000
H       -1.21190000      -2.19910000      -0.15150000
H       -0.14870000      -3.36850000      -0.94170000
H       -0.39160000      -3.43860000       0.80410000
