16
Properties=species:S:1:pos:R:3 gdb_44513=T pbc="F F F"
O       -0.00630000      -0.07580000       0.01400000
C       -0.01260000       1.13960000      -0.00470000
N       -1.15410000       1.91450000      -0.00450000
C       -1.09920000       3.34500000       0.08250000
C       -0.05360000       4.06920000      -0.81870000
N       -0.11640000       5.20980000       0.16630000
C       -0.02580000       3.97490000       1.02650000
C        1.03420000       3.35690000       0.05070000
N        1.12190000       1.92570000      -0.04200000
H       -2.02400000       1.42020000       0.09210000
H       -2.09040000       3.79420000       0.11840000
H       -0.07810000       4.21640000      -1.89880000
H        0.78670000       5.69390000       0.17680000
H       -0.01800000       4.01160000       2.11640000
H        2.02580000       3.81480000       0.05690000
H        1.99920000       1.44160000       0.04260000
