22
Properties=species:S:1:pos:R:3 gdb_108529=T pbc="F F F"
C        0.06520000       1.53060000       0.17500000
C       -0.02830000       0.03510000      -0.15960000
C       -1.43620000      -0.52990000      -0.06760000
C       -2.48550000       0.00900000      -1.04500000
C       -3.68970000      -0.84940000      -0.59010000
N       -3.14030000      -1.67940000       0.50590000
C       -1.72520000      -2.06920000       0.08440000
C       -1.32960000      -2.03170000       1.57160000
C       -2.18580000      -0.78310000       1.29450000
H        1.10240000       1.87610000       0.12790000
H       -0.51800000       2.13950000      -0.52230000
H       -0.30710000       1.73340000       1.18500000
H        0.34840000      -0.13320000      -1.17740000
H        0.64530000      -0.51860000       0.50400000
H       -2.65760000       1.08300000      -0.92570000
H       -2.19850000      -0.16490000      -2.08790000
H       -4.52470000      -0.25460000      -0.20770000
H       -4.07700000      -1.50310000      -1.37750000
H       -1.55390000      -2.85960000      -0.65140000
H       -1.79810000      -2.79080000       2.19870000
H       -0.27790000      -1.88390000       1.81610000
H       -2.56780000      -0.04350000       2.00300000
