17
Properties=species:S:1:pos:R:3 gdb_128742=T pbc="F F F"
C       -0.01850000       1.32610000       0.29140000
O       -0.09600000       0.08760000      -0.38550000
C       -1.28230000      -0.60140000      -0.12930000
C       -1.25660000      -2.05570000      -0.73740000
N       -1.40330000      -2.51150000       0.65150000
N       -1.65740000      -3.55010000       1.44900000
C       -1.83920000      -2.93590000       2.63380000
C       -1.73650000      -1.51990000       2.56890000
C       -1.44830000      -1.30190000       1.23230000
H        0.93080000       1.78650000       0.01080000
H       -0.84210000       1.99700000       0.00260000
H       -0.04320000       1.18970000       1.38200000
H       -2.15740000      -0.00740000      -0.43090000
H       -2.09720000      -2.31610000      -1.38480000
H       -0.30540000      -2.32300000      -1.20190000
H       -2.03690000      -3.53720000       3.50980000
H       -1.85390000      -0.81590000       3.37550000
