20
Properties=species:S:1:pos:R:3 gdb_98566=T pbc="F F F"
C       -0.06100000       1.44020000       0.04410000
N        0.09150000       0.00140000      -0.01310000
C        0.50590000      -0.64880000      -1.14480000
O        0.76570000      -0.06030000      -2.18440000
C        0.61800000      -2.12850000      -1.01160000
C        1.07990000      -2.90100000      -1.99990000
C        1.15280000      -4.35270000      -1.61510000
C        0.34370000      -4.40960000      -0.29240000
C        0.29790000      -2.94810000       0.22700000
H        0.60200000       1.88460000       0.79560000
H        0.20230000       1.83130000      -0.93930000
H       -1.09320000       1.72510000       0.27850000
H       -0.09670000      -0.53810000       0.81430000
H        1.40010000      -2.50880000      -2.95770000
H        0.75010000      -5.01920000      -2.38600000
H        2.20030000      -4.65510000      -1.47130000
H       -0.67430000      -4.74970000      -0.50490000
H        0.76900000      -5.10220000       0.43770000
H        1.04650000      -2.77440000       1.01360000
H       -0.67790000      -2.70570000       0.66550000
