12
Properties=species:S:1:pos:R:3 gdb_21377=T pbc="F F F"
N       -0.03260000       1.34830000       0.01010000
C        1.28360000       1.74730000      -0.00050000
N        2.13160000       0.75080000      -0.01440000
N        1.31120000      -0.34830000      -0.01260000
C        1.38900000      -1.72780000      -0.02110000
C        0.06860000      -2.12430000      -0.01060000
N       -0.82260000      -1.05970000       0.00420000
C       -0.01440000      -0.02950000       0.00220000
H       -0.84660000       1.93610000       0.02160000
H        1.57890000       2.78400000       0.00240000
H        2.32240000      -2.26090000      -0.03320000
H       -0.29780000      -3.13980000      -0.01280000
