21
Properties=species:S:1:pos:R:3 gdb_58718=T pbc="F F F"
C        0.13810000       1.56250000      -0.16570000
C        0.03070000       0.05250000       0.07550000
O        0.65040000      -0.32900000       1.29360000
C       -1.41750000      -0.47920000       0.01390000
C       -2.04830000      -0.50420000      -1.41530000
C       -1.70590000      -2.01130000      -1.53880000
C       -1.46880000      -2.05440000      -0.00770000
C       -2.29090000       0.07600000       1.10600000
O       -1.90170000       0.61150000       2.11990000
H        1.18960000       1.85880000      -0.12890000
H       -0.26250000       1.84690000      -1.14420000
H       -0.40160000       2.12180000       0.60320000
H        0.60130000      -0.46360000      -0.70770000
H        0.12980000       0.08760000       1.99420000
H       -3.12780000      -0.32340000      -1.38530000
H       -1.60940000       0.17720000      -2.14760000
H       -2.48610000      -2.66380000      -1.93590000
H       -0.79050000      -2.18800000      -2.10830000
H       -0.56500000      -2.53150000       0.37340000
H       -2.33050000      -2.45330000       0.53620000
H       -3.38320000      -0.08120000       0.94490000
