21
Properties=species:S:1:pos:R:3 gdb_69309=T pbc="F F F"
C       -0.10690000       1.58380000       0.04210000
C        0.00020000       0.04880000       0.00570000
C       -1.41300000      -0.56750000      -0.02000000
C        0.80430000      -0.44070000      -1.19380000
C        1.79820000      -1.26170000      -0.85420000
C        1.89620000      -1.41410000       0.63190000
O        2.16400000      -2.66650000       1.18620000
C        2.25740000      -0.14790000       1.37770000
C        0.80160000      -0.52990000       1.18300000
H        0.87880000       2.05600000       0.07700000
H       -0.62740000       1.95930000      -0.84600000
H       -0.67080000       1.91190000       0.92170000
H       -1.96000000      -0.25800000      -0.91710000
H       -1.36140000      -1.66010000      -0.01440000
H       -1.99220000      -0.24570000       0.85340000
H        0.56650000      -0.12050000      -2.20340000
H        2.48740000      -1.74970000      -1.53520000
H        3.11980000      -2.77340000       1.23430000
H        2.63530000      -0.27440000       2.38790000
H        2.68810000       0.68090000       0.82530000
H        0.26160000      -0.84420000       2.06910000
