17
Properties=species:S:1:pos:R:3 gdb_123879=T pbc="F F F"
C       -0.14660000       1.51870000       0.03900000
C        1.38160000       1.52350000      -0.23720000
N        1.44150000       0.14970000       0.28190000
C       -0.02130000      -0.00870000       0.29660000
C        2.31500000      -0.80430000      -0.15870000
N        3.49570000      -0.50760000      -0.69710000
N        4.00190000      -1.75500000      -0.93290000
C        3.12860000      -2.69770000      -0.54680000
N        2.04000000      -2.14240000      -0.04920000
H       -0.43070000       2.08790000       0.92530000
H       -0.78470000       1.81210000      -0.79470000
H        1.64840000       1.59010000      -1.30000000
H        1.98870000       2.24310000       0.32040000
H       -0.42290000      -0.39060000       1.23960000
H       -0.39580000      -0.63480000      -0.52270000
H        4.91500000      -1.85350000      -1.34240000
H        3.31800000      -3.75660000      -0.64280000
