13
Properties=species:S:1:pos:R:3 gdb_2965=T pbc="F F F"
O       -0.06330000       0.00580000      -0.02770000
C       -0.00390000       1.20280000      -0.02060000
C        1.34120000       1.96920000       0.03440000
O        2.38310000       1.35520000       0.07320000
C        1.24840000       3.44710000       0.03550000
C        2.31370000       4.20900000       0.82200000
C        2.37140000       4.21360000      -0.66110000
H       -0.91680000       1.84040000      -0.05320000
H        0.25300000       3.87480000      -0.00190000
H        1.98910000       5.10310000       1.34110000
H        3.02720000       3.58760000       1.35120000
H        3.12400000       3.59530000      -1.13700000
H        2.08820000       5.11100000      -1.19840000
