17
Properties=species:S:1:pos:R:3 gdb_25608=T pbc="F F F"
O        0.67730000       0.98810000      -1.43470000
C        0.33610000       1.45630000      -0.36600000
N        1.09360000       1.46440000       0.75900000
C        2.48680000       1.00450000       0.75010000
C        3.47700000       2.04210000       0.30270000
C        3.70320000       2.42860000      -1.00220000
N        4.65820000       3.40960000      -0.98930000
C        5.05690000       3.66080000       0.29940000
C        4.33900000       2.82720000       1.12440000
H       -0.66070000       1.91220000      -0.20010000
H        0.77350000       2.01740000       1.53850000
H        2.72760000       0.65920000       1.75960000
H        2.51250000       0.13820000       0.08510000
H        3.24170000       2.08970000      -1.91530000
H        5.01980000       3.87060000      -1.80570000
H        5.81440000       4.39690000       0.51440000
H        4.42500000       2.77380000       2.19980000
