17
Properties=species:S:1:pos:R:3 gdb_72615=T pbc="F F F"
C       -0.04870000       1.53910000      -0.06000000
C        0.00560000       0.04320000       0.04990000
O        0.82680000      -0.60050000      -0.95180000
C        1.58430000      -1.33760000       0.03310000
C        0.72140000      -0.81660000       1.18760000
O        1.42130000      -0.34660000       2.28630000
C       -0.58830000      -1.57420000       1.36990000
O       -1.58060000      -0.58460000       1.70350000
C       -1.25560000      -0.78220000       0.32020000
H        0.94700000       1.97260000       0.07180000
H       -0.42220000       1.83520000      -1.04640000
H       -0.71620000       1.94910000       0.70340000
H        1.58070000      -2.41750000      -0.15250000
H        2.61780000      -0.97810000       0.09780000
H        0.77500000      -0.01740000       2.92250000
H       -0.76820000      -2.58910000       1.70710000
H       -2.05110000      -1.07370000      -0.35520000
