21
Properties=species:S:1:pos:R:3 gdb_107066=T pbc="F F F"
C        0.24360000       1.28280000      -0.31100000
O       -0.06880000      -0.05830000       0.01550000
C        0.50280000      -0.49650000       1.20620000
C        1.95950000      -0.88630000       1.22110000
C        0.87710000      -1.94610000       1.33920000
C        0.50100000      -2.41070000       2.73010000
O        1.50200000      -3.27050000       3.25870000
C        0.31400000      -1.10420000       3.54430000
C       -0.12320000      -0.03650000       2.52080000
H        1.32940000       1.43920000      -0.38050000
H       -0.21010000       1.48750000      -1.28360000
H       -0.16300000       1.99260000       0.42340000
H        2.46740000      -0.85080000       0.26380000
H        2.58810000      -0.65860000       2.07510000
H        0.74270000      -2.62280000       0.50410000
H       -0.45860000      -2.94890000       2.66580000
H        1.19940000      -3.58440000       4.11690000
H       -0.40020000      -1.21940000       4.36490000
H        1.28000000      -0.84590000       3.98970000
H        0.17080000       0.97470000       2.82240000
H       -1.21180000      -0.03730000       2.39050000
