14
Properties=species:S:1:pos:R:3 gdb_124098=T pbc="F F F"
C        0.02670000       1.40290000      -0.00130000
O        1.30400000       1.93370000      -0.03750000
C        2.06380000       1.68420000       1.15860000
C        1.87970000       0.24390000       1.52200000
C        0.91060000      -0.47870000       0.89240000
O        0.90720000      -1.75300000       1.25930000
N        1.94650000      -1.92340000       2.21050000
C        2.49260000      -0.73610000       2.34100000
O        0.02030000      -0.05210000       0.00390000
H       -0.52950000       1.72630000       0.89120000
H       -0.48520000       1.69090000      -0.91820000
H        3.09770000       1.92930000       0.90030000
H        1.74200000       2.37210000       1.95510000
H        3.32250000      -0.62970000       3.02660000
