14
Properties=species:S:1:pos:R:3 gdb_24922=T pbc="F F F"
N       -0.08200000       1.27320000      -0.01290000
C       -0.01650000       0.01220000      -0.04280000
N       -1.13080000      -0.84610000      -0.10920000
C       -0.63400000      -2.13360000       0.09610000
C        0.72490000      -2.07920000       0.09270000
O        1.13770000      -0.76050000      -0.00620000
C        1.24860000      -3.38640000      -0.01680000
C        0.13590000      -4.20860000      -0.06850000
N       -1.02030000      -3.43400000      -0.05110000
H        0.84720000       1.68100000       0.04850000
H       -1.99680000      -0.48790000       0.26170000
H        2.27700000      -3.70650000      -0.03740000
H        0.06620000      -5.28330000      -0.04360000
H       -1.95260000      -3.80030000       0.02450000
