21
Properties=species:S:1:pos:R:3 gdb_101196=T pbc="F F F"
C       -0.22270000       1.48320000      -0.07730000
C       -0.08880000      -0.03130000       0.09080000
C        0.86600000      -0.41930000       1.23480000
O        0.45590000       0.16820000       2.46200000
C        1.02280000      -1.93660000       1.30190000
C        1.62300000      -2.78990000       2.40800000
C        1.14140000      -2.35000000       3.78670000
O       -0.25160000      -2.34110000       3.33860000
C        0.14860000      -2.88300000       2.06330000
H        0.73670000       1.93540000      -0.35370000
H       -0.94690000       1.73340000      -0.85840000
H       -0.54880000       1.94150000       0.85940000
H       -1.07190000      -0.47680000       0.29520000
H        0.26940000      -0.48470000      -0.84300000
H        1.85310000       0.01630000       1.02100000
H       -0.21600000      -0.41550000       2.84210000
H        1.28670000      -2.35670000       0.33140000
H        2.42520000      -3.49240000       2.22550000
H        1.27390000      -3.12430000       4.54960000
H        1.45940000      -1.37560000       4.16220000
H       -0.46980000      -3.67190000       1.64980000
