23
Properties=species:S:1:pos:R:3 gdb_118271=T pbc="F F F"
C        0.11290000       1.50640000       0.01280000
C       -0.12130000       0.00830000      -0.09510000
O        0.72360000      -0.50190000      -1.10820000
C        0.72250000      -1.91730000      -1.25390000
C       -0.53150000      -2.41720000      -1.97710000
C        1.99590000      -2.28320000      -2.01750000
C        3.27680000      -1.84440000      -1.28120000
C        4.49340000      -2.19150000      -2.00410000
C        5.48200000      -2.48950000      -2.62000000
H        1.15560000       1.71610000       0.26790000
H       -0.11180000       1.99830000      -0.93780000
H       -0.52880000       1.93750000       0.78700000
H        0.09920000      -0.48740000       0.86550000
H       -1.17940000      -0.19160000      -0.32460000
H        0.76480000      -2.37750000      -0.25030000
H       -0.49960000      -3.50530000      -2.09190000
H       -1.44230000      -2.16940000      -1.42490000
H       -0.59960000      -1.96520000      -2.97170000
H        2.01710000      -3.36570000      -2.18060000
H        1.96610000      -1.80990000      -3.00530000
H        3.23190000      -0.76280000      -1.11710000
H        3.30100000      -2.30600000      -0.28460000
H        6.36290000      -2.74500000      -3.15440000
