13
Properties=species:S:1:pos:R:3 gdb_132632=T pbc="F F F"
N        0.04020000       1.35400000      -0.18530000
C       -0.00140000      -0.02190000      -0.08020000
C       -1.20210000      -0.73500000       0.01750000
N       -1.20600000      -2.07020000       0.06180000
C       -0.06150000      -2.69000000       0.00850000
F       -0.04870000      -4.02000000       0.05070000
C        1.15320000      -1.99050000      -0.08710000
O        2.31130000      -2.66960000      -0.13330000
N        1.17410000      -0.67150000      -0.12600000
H        0.93680000       1.76070000       0.03460000
H       -0.74420000       1.85780000       0.19770000
H       -2.16160000      -0.22910000       0.05760000
H        3.01320000      -2.00710000      -0.20100000
