21
Properties=species:S:1:pos:R:3 gdb_87236=T pbc="F F F"
C        0.09330000       1.36860000      -0.38950000
C        0.04180000      -0.04460000       0.13260000
O        1.27610000      -0.77170000       0.20510000
C        0.56740000      -0.51040000       1.43300000
C        1.25580000       0.43080000       2.39930000
C       -0.04800000      -1.75700000       2.05240000
C        1.01930000      -2.78210000       2.49860000
C        0.43220000      -4.00340000       3.03380000
C       -0.07880000      -4.99930000       3.47220000
H        0.91800000       1.93930000       0.04010000
H        0.22220000       1.35870000      -1.47700000
H       -0.84550000       1.88900000      -0.17020000
H       -0.77890000      -0.63360000      -0.28470000
H        1.73220000       1.26340000       1.88090000
H        0.53660000       0.83320000       3.12100000
H        2.03490000      -0.09220000       2.96330000
H       -0.67070000      -1.47780000       2.90990000
H       -0.70420000      -2.24080000       1.32320000
H        1.65240000      -3.01800000       1.63500000
H        1.67900000      -2.33960000       3.25480000
H       -0.51500000      -5.88590000       3.86030000
