17
Properties=species:S:1:pos:R:3 gdb_64552=T pbc="F F F"
C       -0.06730000       1.62780000      -0.05630000
C        0.01240000       0.10740000      -0.06990000
C       -1.34220000      -0.49500000      -0.38200000
O       -2.34020000       0.14630000      -0.58950000
C        1.21910000      -0.61590000      -0.81470000
C        2.12530000      -0.18300000       0.39170000
C        0.79860000      -0.65500000       1.08500000
C        0.92670000      -1.82430000       0.09230000
O        0.92880000      -3.01490000       0.06830000
H        0.88180000       2.11600000       0.16320000
H       -0.42170000       1.98790000      -1.02570000
H       -0.79980000       1.95270000       0.68720000
H       -1.36410000      -1.60730000      -0.40960000
H        1.45220000      -0.57660000      -1.87660000
H        3.01800000      -0.78260000       0.57690000
H        2.34320000       0.87950000       0.46170000
H        0.56170000      -0.65990000       2.14670000
