20
Properties=species:S:1:pos:R:3 gdb_73837=T pbc="F F F"
C        0.09030000       1.49020000       0.12420000
C        0.00150000       0.00460000      -0.00960000
C       -0.08390000      -0.76060000      -1.10750000
C       -0.07820000      -0.37700000      -2.55140000
C       -0.00840000      -2.20430000      -0.66110000
C        1.44360000      -2.51010000      -0.16320000
C        0.94090000      -2.09450000       1.20850000
C        0.01720000      -0.90300000       1.17870000
N       -0.50290000      -2.23100000       0.79190000
H        1.04800000       1.79410000       0.56620000
H       -0.00630000       1.99520000      -0.84020000
H       -0.69520000       1.87570000       0.78670000
H       -0.09670000       0.70710000      -2.68980000
H        0.81260000      -0.76190000      -3.06540000
H       -0.94540000      -0.80000000      -3.07450000
H       -0.48510000      -2.94150000      -1.30810000
H        1.64870000      -3.58300000      -0.17730000
H        2.27680000      -1.96850000      -0.62220000
H        1.30170000      -2.49290000       2.15270000
H       -0.32730000      -0.53680000       2.14290000
