22
Properties=species:S:1:pos:R:3 gdb_77254=T pbc="F F F"
C        1.55300000       1.22570000      -0.58560000
C        0.97990000      -0.13620000      -0.25860000
N        1.80690000      -1.32740000      -0.00100000
C        3.25560000      -1.24430000      -0.01590000
C        3.78680000      -1.83710000      -1.31410000
O        4.82310000      -1.51300000      -1.83230000
C        1.01220000      -0.76600000       1.10300000
C        1.69090000      -0.07570000       2.27220000
C       -0.15160000      -1.64690000       1.52050000
H        2.35790000       1.53800000       0.08180000
H        1.94160000       1.24750000      -1.61000000
H        0.76160000       1.97970000      -0.51990000
H        0.11070000      -0.37490000      -0.87290000
H        3.69920000      -0.24800000       0.10860000
H        3.64940000      -1.87420000       0.79600000
H        3.12510000      -2.62090000      -1.74530000
H        2.52890000       0.55800000       1.97950000
H        0.97100000       0.55060000       2.80980000
H        2.06880000      -0.81900000       2.98410000
H        0.17740000      -2.41810000       2.22660000
H       -0.93330000      -1.05580000       2.01110000
H       -0.58580000      -2.14840000       0.65240000
