22
Properties=species:S:1:pos:R:3 gdb_8311=T pbc="F F F"
C       -0.08770000       1.49820000      -0.29150000
C       -0.08580000      -0.02510000      -0.14200000
C       -1.47630000      -0.60220000       0.14700000
C       -1.47480000      -2.11600000       0.25220000
C       -2.82200000      -2.86840000       0.26420000
C       -2.23830000      -3.64700000      -0.93530000
C       -3.01020000      -3.68100000      -2.23800000
O       -1.09170000      -2.76250000      -0.98900000
H        0.91680000       1.88000000      -0.49950000
H       -0.73990000       1.81440000      -1.11340000
H       -0.44760000       1.98750000       0.62090000
H        0.30030000      -0.49070000      -1.05570000
H        0.60050000      -0.31520000       0.66470000
H       -1.86990000      -0.18900000       1.08690000
H       -2.17340000      -0.30450000      -0.64740000
H       -0.80240000      -2.43320000       1.06460000
H       -3.06000000      -3.44450000       1.15970000
H       -3.67560000      -2.23750000       0.00100000
H       -1.91820000      -4.66350000      -0.66210000
H       -3.35330000      -2.67870000      -2.51260000
H       -2.37820000      -4.06070000      -3.04730000
H       -3.88240000      -4.33820000      -2.14870000
