20
Properties=species:S:1:pos:R:3 gdb_97006=T pbc="F F F"
C       -0.00250000       1.45920000       0.38640000
N       -0.04380000       0.00420000       0.44170000
C       -1.05040000      -0.59440000       0.00430000
O       -2.22010000      -0.09840000      -0.56060000
C       -2.76240000      -1.45470000      -0.71140000
C       -2.87320000      -1.93800000      -2.16350000
C       -1.97240000      -3.19080000      -2.21430000
C       -0.80070000      -2.87010000      -1.26020000
C       -1.45550000      -2.04770000      -0.12510000
H        0.87450000       1.77070000      -0.19210000
H       -0.89540000       1.91760000      -0.05450000
H        0.12990000       1.85270000       1.40040000
H       -3.67860000      -1.55050000      -0.12550000
H       -3.90310000      -2.14120000      -2.46760000
H       -2.48250000      -1.15220000      -2.81830000
H       -2.52790000      -4.05830000      -1.83740000
H       -1.64230000      -3.43750000      -3.22730000
H       -0.30090000      -3.76780000      -0.88970000
H       -0.04340000      -2.26750000      -1.77130000
H       -1.53030000      -2.58650000       0.82000000
