15
Properties=species:S:1:pos:R:3 gdb_1563=T pbc="F F F"
C        0.62350000       1.32040000      -0.00790000
O        0.70610000      -0.08020000      -0.14810000
C       -0.20670000      -0.59630000      -1.08800000
C       -0.02040000      -2.12110000      -1.14010000
O       -1.00700000      -2.69840000      -1.94610000
C        1.36230000      -2.47620000      -1.65160000
O        1.50700000      -3.19180000      -2.61510000
H        0.84870000       1.83770000      -0.95310000
H       -0.37660000       1.63480000       0.32740000
H        1.35910000       1.61680000       0.74310000
H       -1.24820000      -0.38290000      -0.80240000
H       -0.04270000      -0.16540000      -2.08950000
H       -0.08150000      -2.49080000      -0.10130000
H       -0.52460000      -3.20380000      -2.62040000
H        2.21770000      -2.04260000      -1.10250000
