17
Properties=species:S:1:pos:R:3 gdb_32962=T pbc="F F F"
N       -0.03730000       1.34050000       0.59880000
C       -0.06440000       0.03730000       0.12900000
C       -0.98510000      -0.76000000      -0.47090000
N       -0.36920000      -1.96300000      -0.82080000
C        0.85180000      -1.84840000      -0.42310000
C        1.97190000      -2.82360000      -0.50870000
C        1.55800000      -4.11060000      -1.21330000
O        2.70020000      -4.95450000      -1.22830000
O        1.11880000      -0.63640000       0.17020000
H        0.53120000       1.44890000       1.43000000
H       -0.96390000       1.71420000       0.75230000
H       -2.02470000      -0.56510000      -0.67580000
H        2.82030000      -2.37660000      -1.04140000
H        2.33930000      -3.06590000       0.49650000
H        0.71640000      -4.57110000      -0.67730000
H        1.20740000      -3.87920000      -2.22880000
H        2.45890000      -5.77220000      -1.67220000
