18
Properties=species:S:1:pos:R:3 gdb_43790=T pbc="F F F"
N       -0.01230000       1.12880000      -0.42690000
C       -0.03520000      -0.06080000      -0.03160000
O        0.96470000      -0.86770000       0.49420000
C        0.03750000      -1.97740000       0.63320000
C        0.46300000      -3.37940000       0.38500000
C        0.10610000      -2.90490000       1.79230000
C       -1.07210000      -1.12630000       0.06470000
C       -2.51190000      -0.97420000       0.46480000
C       -2.16020000      -1.44170000      -0.92150000
H        0.91610000       1.54130000      -0.33050000
H       -0.22300000      -4.04310000      -0.13160000
H        1.51150000      -3.54920000       0.16630000
H        0.92130000      -2.76440000       2.49350000
H       -0.82390000      -3.24430000       2.23720000
H       -2.91340000      -1.69940000       1.16500000
H       -2.87790000       0.03850000       0.59200000
H       -2.28440000      -0.75050000      -1.74760000
H       -2.32170000      -2.48610000      -1.16770000
