23
Properties=species:S:1:pos:R:3 gdb_100914=T pbc="F F F"
C        0.08180000       1.56620000       0.11590000
C        0.06160000       0.03640000       0.03580000
C        0.72630000      -0.53460000      -1.23280000
C        2.23420000      -0.24630000      -1.27780000
C        0.45560000      -2.05510000      -1.34160000
O       -0.93800000      -2.27800000      -1.23130000
C       -1.28120000      -3.62470000      -0.97180000
C        0.92660000      -2.58030000      -2.69540000
O        2.00800000      -3.05470000      -2.92600000
H        1.09800000       1.96660000       0.18010000
H       -0.39770000       2.01390000      -0.76200000
H       -0.46190000       1.91210000       1.00050000
H        0.56460000      -0.38650000       0.91670000
H       -0.97240000      -0.31460000       0.07050000
H        0.24790000      -0.06200000      -2.10370000
H        2.71560000      -0.69180000      -2.15130000
H        2.42150000       0.82990000      -1.30690000
H        2.73160000      -0.64770000      -0.38720000
H        1.00740000      -2.58320000      -0.54750000
H       -0.95100000      -4.30290000      -1.77280000
H       -0.84490000      -3.97540000      -0.02460000
H       -2.37020000      -3.67020000      -0.90150000
H        0.14930000      -2.46490000      -3.48760000
