23
Properties=species:S:1:pos:R:3 gdb_96260=T pbc="F F F"
O       -0.11040000       1.48560000      -0.08450000
C        0.03570000       0.06320000      -0.04330000
C       -1.39020000      -0.48940000       0.14920000
C       -1.53990000      -1.67290000       1.11910000
C       -0.65790000      -2.90740000       0.81540000
C       -0.73380000      -3.33840000      -0.62280000
C        0.06090000      -2.87200000      -1.58690000
C        1.18830000      -1.88640000      -1.38600000
C        0.75990000      -0.40330000      -1.32140000
H        0.75500000       1.86690000      -0.26600000
H        0.65150000      -0.21370000       0.83100000
H       -1.98980000       0.34070000       0.53490000
H       -1.81190000      -0.75220000      -0.82620000
H       -1.31900000      -1.33860000       2.14070000
H       -2.59430000      -1.97580000       1.11830000
H        0.37990000      -2.67220000       1.07700000
H       -0.96200000      -3.72650000       1.47690000
H       -1.53200000      -4.02930000      -0.88780000
H       -0.10950000      -3.20070000      -2.61010000
H        1.74920000      -2.12880000      -0.47430000
H        1.90030000      -1.99240000      -2.21160000
H        0.12780000      -0.15470000      -2.18270000
H        1.67070000       0.20600000      -1.41830000
