17
Properties=species:S:1:pos:R:3 gdb_131155=T pbc="F F F"
O       -0.85790000       1.01010000      -0.11520000
C       -0.26260000      -0.20050000      -0.12370000
C        0.27740000      -0.96700000      -1.14220000
C        0.73180000      -2.12540000      -0.45990000
N        0.49400000      -2.08820000       0.84370000
N       -0.12200000      -0.88830000       1.02810000
C        0.36120000      -0.59560000      -2.57340000
C       -0.30200000      -1.44460000      -3.63130000
C       -0.87460000      -0.09050000      -3.30620000
H       -0.86880000       1.33100000      -1.02470000
H        1.22260000      -2.98820000      -0.88830000
H       -0.42060000      -0.60790000       1.94640000
H        1.29280000      -0.12860000      -2.88800000
H        0.20910000      -1.56910000      -4.57920000
H       -0.85410000      -2.31530000      -3.29690000
H       -1.81560000      -0.06860000      -2.76580000
H       -0.75340000       0.70650000      -4.03160000
