17
Properties=species:S:1:pos:R:3 gdb_94304=T pbc="F F F"
C       -0.16450000       1.59150000      -0.17680000
C        0.20260000       0.12410000      -0.14230000
O        1.50990000      -0.14160000      -0.71210000
C        1.90150000      -0.94230000       0.42020000
C        0.63520000      -0.53830000       1.18090000
C        0.62760000       0.14340000       2.55650000
C       -0.25190000      -1.04120000       2.95470000
O       -0.81540000      -1.44670000       3.91670000
O       -0.21330000      -1.60710000       1.69980000
H        0.58470000       2.19860000       0.34020000
H       -0.22310000       1.93420000      -1.21400000
H       -1.14190000       1.75620000       0.28950000
H       -0.56800000      -0.48350000      -0.63740000
H        1.94090000      -2.01400000       0.18850000
H        2.85950000      -0.62140000       0.84500000
H        1.58610000       0.18990000       3.07670000
H        0.13160000       1.11340000       2.61710000
