15
Properties=species:S:1:pos:R:3 gdb_44830=T pbc="F F F"
O       -0.46850000       0.14340000      -0.15000000
C       -0.19260000       1.28740000      -0.00380000
O       -1.05720000       2.33660000       0.30310000
C        0.02010000       3.29070000       0.09670000
C        1.06780000       3.06250000       1.12140000
C        1.01850000       2.18210000      -0.13790000
C        2.17100000       1.99890000      -1.09630000
C        3.20440000       1.10560000      -0.57930000
C        4.05020000       0.37470000      -0.14030000
H       -0.20970000       4.18580000      -0.46340000
H        1.90310000       3.75740000       1.12920000
H        0.78930000       2.66050000       2.08990000
H        1.79200000       1.61180000      -2.05020000
H        2.61120000       2.98000000      -1.31640000
H        4.79430000      -0.28000000       0.24090000
