19
Properties=species:S:1:pos:R:3 gdb_73687=T pbc="F F F"
C       -0.20370000       1.58750000       0.12710000
C        0.06430000       0.09620000       0.01600000
C       -1.22820000      -0.74950000      -0.09440000
O       -1.48030000      -1.23750000       1.21400000
C       -0.21830000      -1.60350000       1.75630000
C        0.78230000      -0.54380000       1.24930000
O        1.99650000      -1.06770000       0.73090000
C        1.80510000      -1.19440000      -0.66190000
O        0.97820000      -0.12840000      -1.05790000
H        0.72180000       2.13140000       0.33500000
H       -0.62590000       1.96910000      -0.80740000
H       -0.91820000       1.78150000       0.93310000
H       -2.10060000      -0.17400000      -0.41220000
H       -1.07020000      -1.57240000      -0.80950000
H       -0.31710000      -1.63160000       2.84360000
H        0.10060000      -2.59850000       1.40710000
H        1.04010000       0.18560000       2.02010000
H        2.77090000      -1.11150000      -1.16790000
H        1.33710000      -2.16600000      -0.90270000
