18
Properties=species:S:1:pos:R:3 gdb_117525=T pbc="F F F"
C       -0.04000000       1.20950000       0.26540000
O       -0.12870000      -0.17120000       0.00140000
C        0.72690000      -0.58880000      -1.03680000
C        0.71850000      -2.12100000      -1.02840000
C        1.27930000      -2.68540000      -2.25130000
C        1.75470000      -3.14770000      -3.25390000
C        1.51010000      -2.64870000       0.19970000
N        1.14850000      -3.90330000       0.59210000
O        2.36280000      -1.99470000       0.75750000
H        0.97520000       1.49750000       0.57650000
H       -0.31790000       1.81270000      -0.61360000
H       -0.73660000       1.43030000       1.07780000
H        0.37890000      -0.21600000      -2.01240000
H        1.75460000      -0.24000000      -0.86960000
H       -0.32720000      -2.43950000      -0.92850000
H        2.17390000      -3.55450000      -4.14070000
H        0.58420000      -4.48720000      -0.00180000
H        1.72380000      -4.35520000       1.28520000
