17
Properties=species:S:1:pos:R:3 gdb_79371=T pbc="F F F"
C       -0.11690000       1.63190000      -0.00160000
C       -0.03910000       0.11250000      -0.00000000
C        1.15400000      -0.57640000      -0.70380000
C        2.10070000      -0.37580000       0.52140000
O        2.50250000      -1.77310000       0.60420000
C        1.07970000      -1.82270000       0.25310000
C        0.41220000      -3.07130000       0.07430000
C       -0.16810000      -4.11310000      -0.08080000
C        0.69430000      -0.59800000       1.16210000
H        0.84810000       2.08940000       0.24150000
H       -0.42530000       2.00800000      -0.98310000
H       -0.84810000       1.98810000       0.73200000
H       -1.01010000      -0.33180000      -0.24440000
H        1.43750000      -0.60030000      -1.75620000
H        2.85170000       0.38640000       0.71520000
H       -0.67480000      -5.03670000      -0.21630000
H        0.45680000      -0.64640000       2.22490000
