19
Properties=species:S:1:pos:R:3 gdb_92803=T pbc="F F F"
C        0.00720000       1.60620000      -0.00750000
C        0.00510000       0.07460000      -0.01980000
C        0.97300000      -0.50210000      -1.12590000
C        2.30480000      -0.71050000      -0.40370000
C        2.07220000      -0.74040000       0.90210000
C        2.50090000      -0.32730000       2.29150000
O        2.08280000       1.05510000       2.37250000
C        1.09660000       0.04820000       2.60450000
C        0.61200000      -0.56150000       1.25160000
H        1.01160000       1.99680000       0.17340000
H       -0.35470000       2.00000000      -0.96320000
H       -0.64510000       1.99190000       0.78280000
H       -1.01660000      -0.27840000      -0.19520000
H        0.58300000      -1.44110000      -1.54340000
H        1.07700000       0.18990000      -1.97040000
H        3.25870000      -0.74660000      -0.91660000
H        3.32090000      -0.63150000       2.92920000
H        0.58270000       0.07550000       3.55870000
H        0.14490000      -1.52920000       1.48280000
