23
Properties=species:S:1:pos:R:3 gdb_79963=T pbc="F F F"
C        0.24600000       1.79220000      -0.35910000
C        0.31170000       0.28530000      -0.23400000
C        1.57820000      -0.53730000      -0.45280000
C        2.87240000       0.17240000      -0.24680000
C        3.02220000       0.57380000       1.01760000
C        1.87570000       0.12090000       1.90220000
C        1.29050000       1.19810000       2.82910000
C        0.88890000      -0.52740000       0.91030000
C        0.09590000      -1.70980000       1.42030000
H        1.17580000       2.27460000      -0.05180000
H        0.05420000       2.07480000      -1.40090000
H       -0.56790000       2.20500000       0.24710000
H       -0.56730000      -0.19980000      -0.65620000
H        1.53150000      -1.39260000      -1.12030000
H        3.57600000       0.35800000      -1.05140000
H        3.85610000       1.15150000       1.40290000
H        2.24940000      -0.68250000       2.55860000
H        0.92830000       2.06590000       2.27360000
H        0.45340000       0.79540000       3.40910000
H        2.04600000       1.54730000       3.54120000
H       -0.60050000      -1.41150000       2.21420000
H       -0.49680000      -2.16930000       0.62280000
H        0.75520000      -2.48260000       1.83360000
