17
Properties=species:S:1:pos:R:3 gdb_26143=T pbc="F F F"
C        0.18940000       1.22180000      -0.35450000
N        0.01210000      -0.05650000       0.33040000
C        0.56100000      -0.08060000       1.68420000
C       -1.20760000      -0.67100000       0.16010000
C       -1.62470000      -1.79490000      -0.48260000
O       -0.87520000      -2.66930000      -1.17870000
N       -2.98630000      -1.96640000      -0.34380000
C       -3.35610000      -0.94930000       0.37420000
O       -2.37640000      -0.11620000       0.72830000
H        1.25530000       1.47180000      -0.38320000
H       -0.17310000       1.13540000      -1.38130000
H       -0.34380000       2.05230000       0.13670000
H        0.06220000       0.62880000       2.36480000
H        0.46100000      -1.08690000       2.09720000
H        1.62540000       0.17480000       1.64720000
H       -1.47860000      -3.34880000      -1.50270000
H       -4.35570000      -0.71380000       0.70750000
