21
Properties=species:S:1:pos:R:3 gdb_88879=T pbc="F F F"
O       -0.07260000       1.52910000       0.37530000
C        0.02500000       0.14920000       0.16240000
C       -0.54470000      -0.80630000       1.18050000
C       -1.25290000      -0.57720000      -0.14480000
C       -2.56720000       0.16250000      -0.19390000
C       -2.90850000       0.78610000      -1.56000000
C       -4.43030000       0.95530000      -1.47080000
O       -4.90290000      -0.02700000      -0.54300000
C       -3.80270000      -0.72090000       0.03160000
H        0.53690000       1.76500000       1.08220000
H        0.91960000      -0.16290000      -0.37650000
H       -0.04100000      -1.75030000       1.35800000
H       -1.00150000      -0.36170000       2.05920000
H       -1.16790000      -1.37940000      -0.87490000
H       -2.55680000       0.95840000       0.55750000
H       -2.38050000       1.72490000      -1.73940000
H       -2.64290000       0.08960000      -2.36430000
H       -4.70140000       1.95360000      -1.09890000
H       -4.93100000       0.81090000      -2.43580000
H       -3.66920000      -1.70160000      -0.45630000
H       -4.01900000      -0.90050000       1.09020000
