15
Properties=species:S:1:pos:R:3 gdb_74237=T pbc="F F F"
C       -0.06390000       1.50840000       0.02750000
C        0.00280000       0.01930000      -0.02650000
N        0.03990000      -0.67430000      -1.10110000
C        0.09090000      -2.09030000      -0.68590000
C        1.23350000      -2.80400000      -1.23560000
C        2.18280000      -3.39490000      -1.67210000
C        0.09320000      -2.07720000       0.87150000
O        0.12680000      -2.98750000       1.65460000
N        0.02260000      -0.72240000       1.15840000
H        0.79600000       1.91560000       0.57090000
H       -0.06640000       1.90320000      -0.98820000
H       -0.97010000       1.83980000       0.54630000
H       -0.83690000      -2.58450000      -1.00740000
H        3.01850000      -3.92090000      -2.06290000
H        0.02080000      -0.35390000       2.09600000
