15
Properties=species:S:1:pos:R:3 gdb_15213=T pbc="F F F"
C        0.12170000       1.44360000       0.24840000
C       -0.09000000      -0.02750000      -0.01410000
C        0.57940000      -0.73140000      -1.19020000
C        1.44490000      -0.01130000      -2.08290000
C        2.13820000       0.58240000      -2.86470000
N        0.96700000      -0.99150000       0.18680000
C        2.20820000      -0.80700000       0.76830000
O        3.26000000      -1.13550000       0.28120000
H        1.09710000       1.77570000      -0.11510000
H       -0.65100000       2.02780000      -0.26120000
H        0.05210000       1.66110000       1.31890000
H       -1.07770000      -0.40350000       0.25120000
H        0.03190000      -1.54960000      -1.65390000
H        2.77160000       1.09540000      -3.54570000
H        2.11200000      -0.39010000       1.79030000
