23
Properties=species:S:1:pos:R:3 gdb_53946=T pbc="F F F"
C       -0.42700000       1.42220000       0.07290000
C        0.00000000      -0.03700000       0.01480000
O        0.34230000      -0.61290000       1.02240000
C        0.03600000      -0.74330000      -1.36500000
C       -1.07680000      -0.22550000      -2.29290000
C        1.41680000      -0.39780000      -1.98120000
C       -0.02260000      -2.25390000      -1.13210000
C       -1.28150000      -3.07730000      -1.22010000
C       -0.18800000      -3.25270000      -2.24770000
H        0.07970000       2.02570000      -0.68640000
H       -1.50230000       1.50900000      -0.11710000
H       -0.20810000       1.81460000       1.06650000
H       -0.93260000       0.83070000      -2.53440000
H       -1.07280000      -0.77180000      -3.24100000
H       -2.07000000      -0.33480000      -1.84780000
H        2.22800000      -0.76750000      -1.34740000
H        1.51010000      -0.86980000      -2.96390000
H        1.54880000       0.68150000      -2.11110000
H        0.65400000      -2.55460000      -0.34030000
H       -1.43110000      -3.85490000      -0.47940000
H       -2.19940000      -2.60390000      -1.54990000
H       -0.38570000      -2.89230000      -3.25210000
H        0.41610000      -4.15310000      -2.22000000
