14
Properties=species:S:1:pos:R:3 gdb_8867=T pbc="F F F"
O        0.16070000       1.38360000       0.00400000
C        0.07280000      -0.00920000       0.17740000
C       -1.39300000      -0.46610000       0.00030000
O       -1.87330000       0.01280000      -1.23110000
C       -1.51310000      -1.98240000       0.04620000
O       -1.84760000      -2.59740000      -0.94890000
C       -1.19340000      -2.63140000       1.29460000
C       -0.92630000      -3.14200000       2.35140000
H       -0.29980000       1.57320000      -0.82370000
H        0.70050000      -0.55270000      -0.54810000
H        0.43000000      -0.24230000       1.18470000
H       -1.98710000      -0.03570000       0.81970000
H       -2.01900000      -0.77520000      -1.78030000
H       -0.69240000      -3.60780000       3.27850000
