18
Properties=species:S:1:pos:R:3 gdb_99474=T pbc="F F F"
C       -0.22670000       1.50420000       0.02280000
C       -0.24370000       0.01940000       0.37650000
C        0.97860000      -0.42780000       1.15060000
O        1.83280000       0.32990000       1.53880000
C        1.15040000      -1.94980000       1.40980000
C        2.08620000      -2.22990000       2.61500000
O        2.38320000      -3.59900000       2.74690000
C       -0.11510000      -2.65980000       1.57740000
N       -1.09990000      -3.23810000       1.76090000
H        0.63330000       1.74850000      -0.60620000
H       -1.13780000       1.77820000      -0.51510000
H       -0.15700000       2.11800000       0.92390000
H       -1.12480000      -0.23900000       0.97970000
H       -0.32920000      -0.61220000      -0.51860000
H        1.63810000      -2.35870000       0.51310000
H        3.02580000      -1.70740000       2.43410000
H        1.63740000      -1.80730000       3.52410000
H        1.58620000      -4.05940000       3.03270000
