12
Properties=species:S:1:pos:R:3 gdb_4693=T pbc="F F F"
N        0.13270000       1.39110000       0.14890000
C       -0.00440000       0.01170000       0.02830000
C       -1.10380000      -0.82620000      -0.03210000
N       -0.71260000      -2.13400000      -0.05120000
C        0.60420000      -2.11440000      -0.01070000
N        1.08150000      -0.81900000       0.04350000
C        1.47670000      -3.22810000      -0.03420000
N        2.22850000      -4.10990000      -0.04840000
H        0.74110000       1.80770000      -0.54700000
H       -0.76320000       1.85990000       0.13330000
H       -2.14520000      -0.54450000      -0.06380000
H        2.04390000      -0.54140000       0.15040000
