19
Properties=species:S:1:pos:R:3 gdb_103495=T pbc="F F F"
C        0.11740000       1.42300000      -0.34430000
C        0.01500000       0.01250000       0.24850000
C       -1.36970000      -0.57780000       0.11900000
O       -2.37260000       0.01670000       0.90260000
C       -1.89020000      -1.16280000      -1.19050000
O       -0.92590000      -1.49310000      -2.16640000
C       -0.46900000      -2.78690000      -1.80920000
O       -0.51290000      -2.85920000      -0.39410000
C       -1.61550000      -2.06480000      -0.01840000
H        1.12120000       1.83440000      -0.20420000
H       -0.09670000       1.41030000      -1.41760000
H       -0.58360000       2.11540000       0.13660000
H        0.73460000      -0.64980000      -0.23650000
H        0.26760000       0.03140000       1.31530000
H       -2.56730000       0.88360000       0.52900000
H       -2.88350000      -0.92400000      -1.55710000
H       -1.11930000      -3.55950000      -2.25320000
H        0.56410000      -2.90960000      -2.14390000
H       -2.38080000      -2.55050000       0.57720000
