17
Properties=species:S:1:pos:R:3 gdb_18705=T pbc="F F F"
O       -0.16750000       1.43240000       0.38330000
C        0.03640000       0.08500000      -0.03940000
C        0.99440000      -0.62280000       0.88310000
C        0.79310000      -1.81940000       1.43040000
C       -0.42270000      -2.67090000       1.19250000
C       -1.53530000      -1.94530000       0.46750000
N       -2.04320000      -0.71290000       1.09840000
C       -1.29770000      -0.62610000      -0.17350000
H       -0.68640000       1.36110000       1.19550000
H        0.49120000       0.17050000      -1.03510000
H        1.89810000      -0.06160000       1.10620000
H        1.54640000      -2.23690000       2.09460000
H       -0.13880000      -3.55900000       0.60920000
H       -0.80040000      -3.05500000       2.15000000
H       -2.27430000      -2.59160000      -0.00180000
H       -3.04000000      -0.61810000       0.92680000
H       -1.86380000      -0.37880000      -1.06810000
