21
Properties=species:S:1:pos:R:3 gdb_94810=T pbc="F F F"
C        0.90110000       1.34570000      -0.19440000
C       -0.00210000       0.14190000       0.06080000
O        0.02980000      -0.77800000      -1.03390000
C        0.85750000      -1.90590000      -0.72700000
C        1.40540000      -1.67460000       0.66950000
C        2.10690000      -2.73610000       1.46140000
C        2.88210000      -1.54710000       0.94320000
C        0.41310000      -0.70510000       1.29020000
O        0.99600000       0.01020000       2.36240000
H        1.94910000       1.04360000      -0.27120000
H        0.60870000       1.82960000      -1.13040000
H        0.81840000       2.07390000       0.61780000
H       -1.04190000       0.48250000       0.15200000
H        0.23920000      -2.81410000      -0.77650000
H        1.65160000      -1.99920000      -1.47900000
H        1.91060000      -2.77870000       2.52790000
H        2.26820000      -3.70240000       0.99350000
H        3.56310000      -1.70260000       0.11250000
H        3.19650000      -0.80180000       1.66340000
H       -0.46570000      -1.26780000       1.64250000
H        0.29240000       0.43750000       2.85920000
