18
Properties=species:S:1:pos:R:3 gdb_101522=T pbc="F F F"
C       -0.17100000       1.63700000      -0.28330000
C       -0.02420000       0.12830000      -0.04670000
C       -1.38950000      -0.55760000       0.04850000
O       -2.08980000       0.01150000       1.14080000
C        0.81470000      -0.54740000      -1.13790000
C        2.28960000      -0.22340000      -1.07890000
O        2.84210000       0.41020000      -0.21650000
C        3.07970000      -0.78340000      -2.20260000
N        3.68240000      -1.22570000      -3.08480000
H        0.80020000       2.13640000      -0.25980000
H       -0.63780000       1.83520000      -1.25640000
H       -0.80600000       2.07440000       0.48900000
H        0.48210000      -0.02460000       0.91350000
H       -1.94060000      -0.41790000      -0.89720000
H       -1.25000000      -1.64230000       0.18940000
H       -2.97830000      -0.35510000       1.15790000
H        0.74280000      -1.64470000      -1.08140000
H        0.45520000      -0.29290000      -2.14520000
