23
Properties=species:S:1:pos:R:3 gdb_69484=T pbc="F F F"
C       -0.12380000       1.50380000       0.01080000
C        0.00560000      -0.00220000      -0.01200000
C       -0.79460000      -0.82260000       0.97010000
C        0.71380000      -0.78620000       1.07870000
C        1.56970000      -1.87710000       0.44850000
C        2.93480000      -2.10290000       1.05660000
C        0.87020000      -3.01100000      -0.26350000
C        1.33820000      -1.80930000      -1.05140000
C        0.37220000      -0.66160000      -1.35470000
H        0.78570000       1.98940000      -0.36330000
H       -0.95940000       1.84300000      -0.61380000
H       -0.30520000       1.87090000       1.02630000
H       -1.35100000      -0.27290000       1.72390000
H       -1.29530000      -1.72760000       0.64520000
H        1.14180000      -0.27670000       1.93650000
H        2.85930000      -2.51860000       2.06850000
H        3.52310000      -2.80320000       0.45520000
H        3.50050000      -1.16580000       1.12500000
H        1.43730000      -3.92790000      -0.39570000
H       -0.19020000      -3.18210000      -0.11710000
H        2.16160000      -1.96380000      -1.74210000
H       -0.51410000      -0.98760000      -1.91300000
H        0.88160000       0.07730000      -1.98390000
