16
Properties=species:S:1:pos:R:3 gdb_28059=T pbc="F F F"
C       -0.02870000       1.49960000      -0.05070000
C        0.00290000       0.00850000      -0.01740000
N       -0.03180000      -0.78530000      -1.07110000
C        0.01660000      -2.06120000      -0.57050000
N       -0.00550000      -3.13210000      -1.46550000
C        0.03720000      -4.44840000      -1.12320000
O        0.10020000      -4.87100000       0.01320000
C        0.08220000      -2.06370000       0.79790000
N        0.07240000      -0.71960000       1.13150000
H        0.86600000       1.93750000       0.40660000
H       -0.07710000       1.82440000      -1.09060000
H       -0.90110000       1.90180000       0.47730000
H       -0.05710000      -2.87560000      -2.43990000
H        0.00740000      -5.10320000      -2.01480000
H        0.13230000      -2.85940000       1.51600000
H        0.11020000      -0.35100000       2.06680000
