17
Properties=species:S:1:pos:R:3 gdb_15396=T pbc="F F F"
O       -0.02470000       1.40450000       0.00660000
C       -0.01780000       0.00180000       0.20670000
C       -1.35900000      -0.53790000      -0.28230000
C       -1.44770000      -2.04180000      -0.15490000
C       -1.86070000      -2.68940000       1.13420000
C       -2.79410000      -2.75260000      -0.06710000
C       -4.01600000      -1.99880000      -0.05700000
N       -5.00290000      -1.39450000      -0.05230000
H        0.80770000       1.76140000       0.32950000
H        0.80270000      -0.47940000      -0.35170000
H        0.11940000      -0.25450000       1.26960000
H       -2.16250000      -0.05810000       0.28630000
H       -1.49530000      -0.23870000      -1.32790000
H       -0.71550000      -2.59070000      -0.74190000
H       -1.39420000      -3.61800000       1.44150000
H       -2.16350000      -2.04090000       1.94880000
H       -2.87560000      -3.70690000      -0.57620000
