21
Properties=species:S:1:pos:R:3 gdb_91541=T pbc="F F F"
C       -0.06480000       1.62910000       0.02240000
C        0.06050000       0.11320000       0.11020000
C        1.05210000      -0.65760000      -0.80330000
N        1.68520000      -1.36370000       0.36740000
C        2.26310000      -0.28590000       1.19030000
C        0.80610000      -0.52290000       1.29640000
C        0.10550000      -1.05860000       2.49200000
C        0.80710000      -1.44330000       3.73990000
N       -0.02090000      -0.22660000       3.71480000
H        0.90870000       2.12450000       0.09650000
H       -0.51510000       1.92830000      -0.93040000
H       -0.70100000       2.01600000       0.82590000
H       -0.93490000      -0.33600000       0.03310000
H        0.58240000      -1.37870000      -1.47480000
H        1.76270000      -0.04970000      -1.37510000
H        2.90340000      -0.65960000       1.98260000
H        2.64140000       0.60780000       0.69740000
H       -0.81570000      -1.58970000       2.25790000
H        0.40660000      -2.25510000       4.34040000
H        1.88660000      -1.34180000       3.78860000
H        0.58940000       0.58320000       3.61820000
