18
Properties=species:S:1:pos:R:3 gdb_126609=T pbc="F F F"
C        0.04490000       1.49480000      -0.12150000
C        0.30180000      -0.01360000      -0.10020000
C        0.51040000      -0.53590000       1.32570000
N        0.73190000      -1.97250000       1.37760000
C        1.85790000      -2.67270000       1.06570000
C        1.47200000      -3.98250000       1.23990000
O        2.21140000      -5.09500000       1.07150000
N        0.17940000      -4.02200000       1.63200000
N       -0.27050000      -2.79100000       1.71300000
H        0.88730000       2.05040000       0.30540000
H       -0.10350000       1.85110000      -1.14450000
H       -0.85000000       1.75370000       0.45450000
H       -0.54220000      -0.55100000      -0.54620000
H        1.18350000      -0.25390000      -0.70600000
H        1.36320000      -0.03860000       1.80030000
H       -0.37440000      -0.34870000       1.93880000
H        2.78300000      -2.21020000       0.77190000
H        1.63610000      -5.84120000       1.28340000
