18
Properties=species:S:1:pos:R:3 gdb_79455=T pbc="F F F"
C       -0.16160000       1.46440000       0.07890000
N       -0.00950000       0.01370000       0.04140000
C        0.74820000      -0.44660000      -1.14510000
C        2.12590000      -0.31060000      -0.46560000
O        2.56130000      -1.60540000      -0.92290000
C        1.13690000      -1.95290000      -0.89020000
C        0.92380000      -2.02520000       0.64470000
O        1.82240000      -2.88860000       1.28100000
C        1.17350000      -0.50490000       0.81180000
H        0.76230000       2.03080000      -0.13420000
H       -0.91670000       1.76550000      -0.65470000
H       -0.51920000       1.76190000       1.06930000
H        0.47200000      -0.10670000      -2.14240000
H        2.87060000       0.47850000      -0.54140000
H        0.87550000      -2.79260000      -1.53050000
H       -0.09160000      -2.28460000       0.94420000
H        2.65870000      -2.78350000       0.80440000
H        1.36710000      -0.10390000       1.80460000
