20
Properties=species:S:1:pos:R:3 gdb_19183=T pbc="F F F"
C       -0.24490000       1.53680000       1.14830000
C       -0.09590000       0.08680000       0.71920000
C        0.93580000      -0.35200000      -0.38650000
C        2.25730000       0.09080000       0.25170000
C        2.13080000      -0.29900000       1.52480000
C        0.74250000      -0.94780000       1.55960000
C        0.83070000      -1.80450000       0.23220000
C       -0.33190000      -2.70870000      -0.16010000
H        0.71900000       1.99400000       1.38410000
H       -0.71750000       2.12690000       0.35470000
H       -0.88460000       1.61240000       2.03510000
H       -1.08770000      -0.31700000       0.49700000
H        0.77160000      -0.15670000      -1.44740000
H        3.07780000       0.58800000      -0.24590000
H        2.81970000      -0.20760000       2.35250000
H        0.37940000      -1.36520000       2.50000000
H        1.76510000      -2.36760000       0.15260000
H       -1.30960000      -2.22330000      -0.10840000
H       -0.19790000      -3.07260000      -1.18520000
H       -0.36450000      -3.58720000       0.49450000
