18
Properties=species:S:1:pos:R:3 gdb_115194=T pbc="F F F"
C        0.01180000       1.43970000       0.08160000
O       -0.08850000       0.03230000       0.10970000
C        0.67030000      -0.58640000       1.13440000
C        0.02800000      -1.95260000       1.36890000
O        0.80840000      -2.77550000       2.23920000
C        2.13870000      -2.92170000       1.95450000
N        2.82400000      -3.87260000       2.44530000
C        2.76500000      -1.89550000       1.11130000
C        2.11250000      -0.79000000       0.74700000
H        1.03700000       1.78480000      -0.11730000
H       -0.63460000       1.78990000      -0.72620000
H       -0.32470000       1.88730000       1.02920000
H        0.61060000       0.01620000       2.05740000
H       -0.94870000      -1.85330000       1.84480000
H       -0.10220000      -2.44240000       0.39580000
H        2.22450000      -4.47420000       3.01450000
H        3.79960000      -2.08270000       0.85130000
H        2.59850000      -0.01710000       0.15940000
