16
Properties=species:S:1:pos:R:3 gdb_67443=T pbc="F F F"
O       -0.23850000       1.44260000      -0.14620000
C       -0.10020000       0.07250000      -0.07870000
C       -1.25380000      -0.84990000       0.31380000
C       -0.62090000      -1.88410000      -0.71910000
C        0.56000000      -0.90280000      -1.07910000
O        1.76680000      -1.04750000      -0.19700000
C        0.91470000      -0.64550000       0.81920000
N        0.55190000      -1.25920000       1.86320000
C       -0.94760000      -1.11290000       1.82130000
H        0.63580000       1.84940000      -0.16690000
H       -2.27660000      -0.54730000       0.08590000
H       -0.32600000      -2.86040000      -0.33200000
H       -1.27070000      -2.01610000      -1.58680000
H        0.86120000      -0.74130000      -2.11220000
H       -1.32970000      -0.31480000       2.47030000
H       -1.36270000      -2.06120000       2.17510000
