19
Properties=species:S:1:pos:R:3 gdb_18240=T pbc="F F F"
C        0.13440000       1.53840000      -0.15050000
C       -0.05970000       0.02930000       0.08170000
C        0.66570000      -0.48730000       1.28840000
C        0.13430000      -1.03500000       2.38760000
C        1.17300000      -1.44980000       3.40980000
C        2.48750000      -1.12400000       2.70840000
N        2.70470000      -1.89280000       1.46300000
C        2.16200000      -0.50220000       1.39800000
H        1.19000000       1.79090000      -0.29470000
H       -0.40840000       1.86750000      -1.04190000
H       -0.23200000       2.11530000       0.70430000
H       -1.12880000      -0.18790000       0.18320000
H        0.28630000      -0.51370000      -0.80870000
H       -0.92620000      -1.21190000       2.53550000
H        1.07080000      -0.88890000       4.34870000
H        1.10200000      -2.51440000       3.66400000
H        3.35300000      -0.82310000       3.28890000
H        3.70000000      -1.85870000       1.24500000
H        2.77340000       0.26940000       0.94170000
