16
Properties=species:S:1:pos:R:3 gdb_51783=T pbc="F F F"
O        0.20230000       0.10640000      -0.60680000
C        0.28980000       1.29420000      -0.60290000
O        1.05320000       1.95910000       0.30000000
C        1.09500000       3.37380000       0.21490000
C        1.63650000       4.00330000       1.51550000
N        2.93460000       4.27010000       0.84730000
C        2.37070000       3.95540000      -0.47890000
C        3.18550000       2.98330000      -1.31140000
O        2.75540000       2.45910000      -2.30620000
H       -0.23710000       1.97070000      -1.30080000
H        0.14380000       3.75970000      -0.15870000
H        1.07440000       4.89550000       1.81660000
H        1.70400000       3.31510000       2.36290000
H        3.29550000       5.20960000       0.95990000
H        2.11410000       4.81770000      -1.11130000
H        4.20440000       2.78110000      -0.91530000
