14
Properties=species:S:1:pos:R:3 gdb_130062=T pbc="F F F"
N        0.02560000       1.35650000      -0.00470000
C        0.00220000      -0.01720000      -0.00270000
N       -1.10670000      -0.72430000      -0.18310000
N       -0.64430000      -2.00590000      -0.03880000
C       -1.56070000      -3.11740000      -0.10280000
C       -2.32840000      -3.31150000       1.13760000
N       -2.92980000      -3.48840000       2.10690000
C        0.67820000      -1.98910000       0.21530000
N        1.13160000      -0.75330000       0.23800000
H        0.92710000       1.74800000      -0.23070000
H       -0.74410000       1.79150000      -0.48990000
H       -2.25630000      -2.94930000      -0.93020000
H       -0.99400000      -4.02850000      -0.31570000
H        1.25920000      -2.88710000       0.36740000
