17
Properties=species:S:1:pos:R:3 gdb_34963=T pbc="F F F"
N       -0.21170000      -1.19680000      -0.16570000
C       -0.13130000      -0.04550000      -0.09110000
C       -0.01460000       1.40120000       0.03930000
C       -0.28430000       2.05150000       1.42100000
C        0.44240000       1.32780000       2.58350000
C        1.80070000       1.92290000       2.11970000
C        2.33900000       1.24660000       0.84430000
N        1.37440000       1.99600000      -0.04070000
C        1.01660000       2.87440000       1.16080000
H       -0.62230000       1.86890000      -0.74280000
H       -1.27960000       2.45820000       1.59760000
H        0.13740000       1.76100000       3.53980000
H        0.35060000       0.23940000       2.64400000
H        2.50950000       2.24050000       2.88420000
H        3.35370000       1.56840000       0.59210000
H        2.28780000       0.15600000       0.77040000
H        1.10310000       3.95570000       1.07060000
