19
Properties=species:S:1:pos:R:3 gdb_80500=T pbc="F F F"
C       -0.36110000       1.46880000      -0.12310000
C        0.03110000      -0.00340000      -0.12440000
C        1.11430000      -0.57750000      -1.09760000
C        1.81530000      -1.25140000       0.09780000
N        2.24300000      -0.32930000       1.10930000
C        2.84840000       0.96860000       0.84580000
C        0.82340000      -0.61070000       1.06810000
C        0.19720000      -1.14540000       2.24200000
N       -0.35230000      -1.56110000       3.17160000
H        0.49690000       2.13840000      -0.03600000
H       -0.88880000       1.72110000      -1.04910000
H       -1.03730000       1.68300000       0.71130000
H       -0.87490000      -0.60660000      -0.23920000
H        0.70400000      -1.29460000      -1.81020000
H        1.71840000       0.14970000      -1.64670000
H        2.20620000      -2.26300000       0.11760000
H        2.55710000       1.43620000      -0.10180000
H        2.59520000       1.64820000       1.66390000
H        3.93460000       0.83570000       0.83870000
