16
Properties=species:S:1:pos:R:3 gdb_24631=T pbc="F F F"
C        0.11720000       1.55620000      -0.05360000
N        1.31250000       0.68930000      -0.00170000
C       -0.01000000       0.08560000       0.02290000
C       -0.51730000      -0.83530000       1.17480000
N       -1.06910000      -1.68930000       0.09140000
C       -1.76230000      -2.72870000      -0.44060000
N       -1.76950000      -2.62630000      -1.75990000
C       -1.07370000      -1.48210000      -2.09380000
C       -0.63470000      -0.89220000      -0.93290000
H       -0.03940000       2.16720000       0.83130000
H       -0.15140000       2.03480000      -0.99180000
H        1.73140000       0.58790000      -0.92290000
H        0.27140000      -1.31630000       1.75670000
H       -1.28280000      -0.41360000       1.83020000
H       -2.22420000      -3.51440000       0.13590000
H       -0.94710000      -1.18520000      -3.12250000
