18
Properties=species:S:1:pos:R:3 gdb_95442=T pbc="F F F"
C       -0.12070000       1.43800000       0.03640000
N        0.03290000       0.01010000       0.23690000
C       -1.13380000      -0.86160000       0.06890000
C       -0.48050000      -2.26550000       0.06010000
N        0.95490000      -2.02810000      -0.15810000
C        1.13850000      -0.75900000      -0.03810000
C        2.54000000      -0.18560000      -0.13110000
N        3.44820000      -1.13310000      -0.45590000
O        2.80910000       0.98800000       0.06300000
H        0.84330000       1.92470000       0.16080000
H       -0.51660000       1.66330000      -0.96670000
H       -0.82880000       1.83420000       0.77250000
H       -1.85570000      -0.71750000       0.87910000
H       -1.64340000      -0.63040000      -0.88020000
H       -0.61420000      -2.77810000       1.02160000
H       -0.88840000      -2.92190000      -0.71370000
H        3.14080000      -2.09080000      -0.52680000
H        4.42160000      -0.88340000      -0.48790000
