16
Properties=species:S:1:pos:R:3 gdb_2229=T pbc="F F F"
C        0.01570000       1.51010000      -0.02440000
C       -0.04220000       0.00760000       0.08360000
C       -1.36520000      -0.71200000      -0.21250000
C       -1.31050000      -1.95420000       0.65180000
C       -0.21820000      -1.97210000       1.42160000
C        0.65840000      -0.79830000       1.13650000
N        1.19800000      -0.71000000      -0.24520000
H        1.00790000       1.87450000       0.25220000
H       -0.18520000       1.83640000      -1.05170000
H       -0.72700000       1.98160000       0.62870000
H       -2.22260000      -0.07840000       0.05350000
H       -1.47880000      -0.94440000      -1.28010000
H       -2.06870000      -2.72810000       0.61230000
H        0.04160000      -2.74350000       2.13730000
H        1.29220000      -0.36800000       1.90570000
H        0.99570000      -1.58000000      -0.73560000
