19
Properties=species:S:1:pos:R:3 gdb_107043=T pbc="F F F"
O       -0.01580000       1.35320000       0.38040000
C        0.01900000      -0.00360000      -0.04880000
C       -1.39270000      -0.51710000      -0.08190000
C       -2.04720000      -1.07050000       1.16860000
C       -1.75370000      -1.98430000      -0.00130000
C       -2.87760000      -2.25340000      -1.00950000
O       -4.00450000      -2.94740000      -0.48870000
C       -3.19600000      -0.86510000      -1.54530000
C       -2.37580000       0.06430000      -1.05480000
H        0.86380000       1.72540000       0.26720000
H        0.46740000      -0.08550000      -1.05170000
H        0.62150000      -0.62370000       0.63410000
H       -1.42450000      -1.19760000       2.04860000
H       -3.06760000      -0.76680000       1.38080000
H       -0.99170000      -2.74250000       0.13670000
H       -2.51570000      -2.90840000      -1.81200000
H       -4.32630000      -2.44320000       0.26710000
H       -4.02800000      -0.69770000      -2.21960000
H       -2.39800000       1.12560000      -1.27340000
