21
Properties=species:S:1:pos:R:3 gdb_92355=T pbc="F F F"
C       -0.01760000       1.45390000       0.12120000
C       -0.04360000      -0.04690000      -0.04380000
C        0.69870000      -0.70490000      -1.21190000
C        0.43310000      -2.13510000      -0.69480000
C        0.97560000      -1.99130000       0.73300000
O        0.58080000      -0.65680000       1.12100000
C       -1.11020000      -2.14830000      -0.61800000
C       -1.45270000      -0.70300000      -0.11610000
O       -2.10760000      -0.64980000       1.13130000
H        1.00500000       1.81100000       0.27020000
H       -0.43460000       1.94130000      -0.76550000
H       -0.61950000       1.74800000       0.98570000
H        0.23520000      -0.50170000      -2.18140000
H        1.75640000      -0.42900000      -1.24840000
H        0.88000000      -2.95630000      -1.25680000
H        0.54540000      -2.71860000       1.43160000
H        2.06960000      -2.07110000       0.77800000
H       -1.54850000      -2.34320000      -1.60140000
H       -1.50270000      -2.89470000       0.07790000
H       -2.09800000      -0.17760000      -0.82750000
H       -1.40430000      -0.76490000       1.78720000
