20
Properties=species:S:1:pos:R:3 gdb_26325=T pbc="F F F"
C        0.18340000       1.29290000      -0.48370000
C       -0.00700000       0.02200000       0.35030000
O        0.29660000       0.26220000       1.72580000
C       -1.37920000      -0.58300000       0.19860000
C       -2.08190000      -1.20650000       1.20580000
N       -3.27760000      -1.63830000       0.68420000
C       -3.36360000      -1.30770000      -0.64740000
C       -4.56110000      -1.64670000      -1.47260000
C       -2.19690000      -0.65140000      -0.97170000
H        1.18130000       1.70380000      -0.30850000
H        0.07540000       1.08760000      -1.55340000
H       -0.56110000       2.04960000      -0.21090000
H        0.75490000      -0.70640000       0.04100000
H       -0.40610000       0.82760000       2.06750000
H       -1.81540000      -1.38670000       2.23390000
H       -3.99140000      -2.11950000       1.20310000
H       -5.47560000      -1.17330000      -1.09280000
H       -4.41450000      -1.30170000      -2.49860000
H       -4.74620000      -2.72770000      -1.51120000
H       -1.95950000      -0.26090000      -1.95000000
