20
Properties=species:S:1:pos:R:3 gdb_85630=T pbc="F F F"
C       -0.80990000       1.24340000       0.00630000
C        0.09490000       0.01480000      -0.05910000
C        1.26460000       0.13590000      -1.06880000
C        2.30650000      -0.79800000      -0.47880000
C        2.01900000      -1.11950000       0.79010000
C        0.76820000      -0.43190000       1.28030000
C        1.12300000       0.70340000       2.26060000
C        3.45290000      -1.22760000      -1.20100000
N        4.37480000      -1.56180000      -1.81840000
H       -0.25760000       2.14010000       0.30480000
H       -1.25790000       1.44310000      -0.97260000
H       -1.62850000       1.09980000       0.71940000
H       -0.51150000      -0.83790000      -0.38820000
H        0.97300000      -0.14370000      -2.08570000
H        1.65890000       1.15970000      -1.12550000
H        2.63880000      -1.74600000       1.42170000
H        0.11720000      -1.13690000       1.81220000
H        1.75870000       1.45840000       1.78730000
H        0.22160000       1.19860000       2.63300000
H        1.66700000       0.30790000       3.12420000
