20
Properties=species:S:1:pos:R:3 gdb_81602=T pbc="F F F"
C       -0.49030000       1.48400000       0.61950000
C       -0.05600000       0.03320000       0.51400000
C        1.23090000      -0.41470000      -0.24730000
C        2.09010000       0.15250000       0.91870000
C        0.90740000      -0.64110000       1.54090000
N        1.05650000      -1.73520000       0.49150000
C        2.21080000      -2.64140000       0.57530000
C        2.04000000      -3.59190000       1.67060000
C        1.91140000      -4.35980000       2.58580000
H        0.32080000       2.17430000       0.86320000
H       -0.93400000       1.81520000      -0.32580000
H       -1.25890000       1.59140000       1.39270000
H       -0.90030000      -0.61940000       0.27830000
H        1.42640000      -0.38460000      -1.32170000
H        3.09140000      -0.25690000       1.05030000
H        2.11480000       1.23420000       1.05930000
H        0.72050000      -0.88510000       2.58770000
H        2.25230000      -3.18600000      -0.37700000
H        3.19190000      -2.15310000       0.69030000
H        1.79560000      -5.04690000       3.38690000
