16
Properties=species:S:1:pos:R:3 gdb_38556=T pbc="F F F"
C       -0.00620000       1.49240000       0.08300000
C        1.45870000       1.92620000      -0.00440000
O        2.31020000       1.81810000      -1.17690000
C        2.23150000       0.71460000      -0.29280000
C        2.99890000       0.21240000       0.90400000
C        2.14260000      -0.61640000       1.52080000
C        0.94300000      -0.93930000       0.65050000
C        1.22880000      -0.37070000      -0.67890000
N       -0.03440000       0.01890000      -0.07090000
H       -0.40460000       1.80760000       1.05340000
H       -0.65810000       1.90950000      -0.69420000
H        1.83290000       2.65310000       0.71170000
H        3.91850000       0.62800000       1.29490000
H        2.28140000      -1.05980000       2.49840000
H        0.46030000      -1.90080000       0.78050000
H        1.26390000      -0.87890000      -1.63880000
