20
Properties=species:S:1:pos:R:3 gdb_9677=T pbc="F F F"
C       -0.02170000       1.57490000      -0.34740000
C        0.01580000       0.12710000       0.15880000
C       -1.34940000      -0.53740000       0.14340000
O       -2.29700000       0.10110000       0.96890000
C       -1.87550000      -1.19570000      -1.11130000
C       -1.53050000      -2.02860000       0.11050000
C       -0.39370000      -3.01470000       0.09020000
O       -0.87610000      -4.21780000      -0.49730000
H        0.97740000       2.02010000      -0.33900000
H       -0.40380000       1.62630000      -1.37290000
H       -0.66020000       2.19940000       0.28630000
H        0.71320000      -0.45140000      -0.45560000
H        0.40370000       0.10900000       1.18490000
H       -2.56720000       0.91560000       0.53160000
H       -2.92500000      -1.06590000      -1.35030000
H       -1.21560000      -1.26590000      -1.97080000
H       -2.38640000      -2.36830000       0.68570000
H        0.45690000      -2.61420000      -0.48270000
H       -0.03840000      -3.19450000       1.11780000
H       -0.17870000      -4.87750000      -0.43700000
