24
Properties=species:S:1:pos:R:3 gdb_59864=T pbc="F F F"
C       -0.22170000       1.62060000      -0.05790000
C       -0.04600000       0.09710000       0.00150000
C       -1.40440000      -0.61020000       0.09310000
C        0.74810000      -0.42830000      -1.20570000
C        2.23150000      -0.04680000      -1.16580000
O        2.71210000       0.52230000      -0.19670000
N        3.00100000      -0.38240000      -2.25430000
C        4.41030000      -0.02760000      -2.25950000
C        2.53740000      -1.08310000      -3.43440000
H        0.74740000       2.12230000      -0.08750000
H       -0.79650000       1.91410000      -0.94580000
H       -0.76620000       1.98340000       0.82020000
H        0.53680000      -0.13830000       0.89860000
H       -2.01450000      -0.41570000      -0.79770000
H       -1.28930000      -1.69580000       0.18670000
H       -1.97020000      -0.25770000       0.96160000
H        0.67660000      -1.52360000      -1.24620000
H        0.29030000      -0.06200000      -2.13370000
H        5.03670000      -0.92650000      -2.32780000
H        4.64300000       0.61480000      -3.11860000
H        4.63420000       0.50190000      -1.33550000
H        2.63740000      -0.45440000      -4.33020000
H        3.13360000      -1.99070000      -3.59920000
H        1.49520000      -1.37860000      -3.33980000
