18
Properties=species:S:1:pos:R:3 gdb_14484=T pbc="F F F"
C       -0.00730000       1.50550000      -0.00270000
C        0.01110000       0.01310000       0.01630000
C        0.23240000      -0.98950000      -1.11000000
C        0.83390000      -2.00710000      -0.09890000
C        0.61640000      -1.00890000       1.03380000
C       -0.47310000      -2.01550000       0.68480000
C       -1.10160000      -3.08730000       1.51200000
C       -1.07940000      -0.99300000      -0.33150000
H        1.00740000       1.92110000      -0.02020000
H       -0.53160000       1.87320000      -0.89210000
H       -0.52040000       1.91360000       0.87660000
H        0.40540000      -0.81230000      -2.16380000
H        1.58200000      -2.78350000      -0.19620000
H        1.16660000      -0.88320000       1.95820000
H       -1.84850000      -2.67740000       2.20280000
H       -1.60060000      -3.83830000       0.88780000
H       -0.34460000      -3.60480000       2.11210000
H       -2.08970000      -0.81930000      -0.68080000
