21
Properties=species:S:1:pos:R:3 gdb_97805=T pbc="F F F"
C        0.01940000       1.46590000      -0.02740000
C       -0.07220000       0.00590000       0.43100000
C       -1.42280000      -0.60990000       0.13640000
C       -1.73250000      -1.18920000      -1.21210000
C       -1.60020000      -2.12020000      -0.01090000
C       -0.48410000      -3.01290000       0.09110000
C        0.45190000      -3.77090000       0.17160000
C        1.57710000      -4.68910000       0.32860000
O        2.43940000      -4.36000000       1.41190000
H        1.00290000       1.88890000       0.19910000
H       -0.14410000       1.55080000      -1.10690000
H       -0.73300000       2.08770000       0.47050000
H        0.70980000      -0.58870000      -0.05330000
H        0.12570000      -0.05530000       1.50880000
H       -2.25560000      -0.12170000       0.63780000
H       -2.72220000      -1.05840000      -1.63530000
H       -0.92940000      -1.22630000      -1.94010000
H       -2.53420000      -2.51660000       0.37770000
H        1.19340000      -5.71800000       0.42410000
H        2.20950000      -4.67320000      -0.56650000
H        1.88250000      -4.21760000       2.18420000
