18
Properties=species:S:1:pos:R:3 gdb_8355=T pbc="F F F"
C       -0.01940000       1.43370000       0.00930000
C        0.00250000      -0.02150000       0.00220000
C        0.02040000      -1.22690000      -0.00400000
C        0.04070000      -2.66180000      -0.01200000
C        0.68250000      -3.61630000       1.05330000
C        0.06740000      -4.55400000      -0.02270000
C       -1.18710000      -3.63670000      -0.00840000
C        0.66740000      -3.60430000      -1.09670000
H        0.99530000       1.84750000      -0.00040000
H       -0.54590000       1.82830000      -0.86700000
H       -0.52560000       1.82030000       0.90110000
H        1.77300000      -3.59160000       1.12480000
H        0.21360000      -3.61870000       2.04090000
H        0.08280000      -5.64310000      -0.02900000
H       -1.79430000      -3.64080000       0.90060000
H       -1.80780000      -3.63060000      -0.90840000
H        0.18410000      -3.59580000      -2.07720000
H        1.75680000      -3.57870000      -1.18380000
