16
Properties=species:S:1:pos:R:3 gdb_56342=T pbc="F F F"
N       -0.75650000       1.08050000      -0.39090000
C       -0.58400000      -0.19900000       0.03400000
O       -0.26730000      -0.53700000       1.15130000
O       -0.85500000      -1.06180000      -0.98730000
C       -0.75170000      -2.45170000      -0.65870000
C       -2.03190000      -2.96630000      -0.02000000
O       -3.12100000      -2.90540000      -0.94420000
C       -3.93210000      -1.82980000      -0.88520000
O       -4.80660000      -1.64000000      -1.67480000
H       -0.44320000       1.81420000       0.21980000
H       -0.86240000       1.27190000      -1.37200000
H       -0.57150000      -2.95920000      -1.60860000
H        0.08780000      -2.61320000       0.02210000
H       -1.91220000      -4.01820000       0.25360000
H       -2.25550000      -2.39290000       0.88610000
H       -3.70810000      -1.16940000      -0.02580000
