18
Properties=species:S:1:pos:R:3 gdb_45527=T pbc="F F F"
O       -0.04030000       0.05680000      -0.75160000
C       -0.05270000       1.14380000      -0.25980000
C       -1.13530000       2.09580000       0.27330000
N       -0.06890000       3.02980000       0.72810000
C       -0.01410000       3.22980000       2.17670000
C        1.41040000       3.54910000       2.64080000
C        2.35690000       2.46440000       2.19140000
C        2.15020000       1.80170000       1.05510000
C        1.02110000       2.17570000       0.15100000
H       -1.80170000       2.50980000      -0.49180000
H       -1.74820000       1.66570000       1.07740000
H       -0.70050000       4.04190000       2.44350000
H       -0.35000000       2.32950000       2.72410000
H        1.72650000       4.52400000       2.24440000
H        1.41890000       3.64040000       3.73180000
H        3.21120000       2.22670000       2.81850000
H        2.81270000       1.01200000       0.71370000
H        1.42810000       2.64680000      -0.75930000
