14
Properties=species:S:1:pos:R:3 gdb_990=T pbc="F F F"
C       -0.06040000       1.51950000       0.02270000
C       -0.01550000       0.02450000       0.00820000
C       -0.00980000      -0.80890000      -1.06630000
O        0.01850000      -2.10820000      -0.68720000
C        0.04150000      -2.11720000       0.68180000
C        0.01730000      -0.84220000       1.16190000
N       -0.05990000      -0.39870000       2.49170000
H        0.83910000       1.95370000       0.47870000
H       -0.13620000       1.92150000      -0.99130000
H       -0.91920000       1.88750000       0.59610000
H       -0.02560000      -0.62630000      -2.12890000
H        0.06040000      -3.08690000       1.14980000
H        0.19310000      -1.11550000       3.15970000
H        0.50950000       0.42180000       2.65970000
