15
Properties=species:S:1:pos:R:3 gdb_3048=T pbc="F F F"
O       -0.08630000       0.07010000       0.24220000
C        0.06070000       1.20680000      -0.12010000
C        1.41750000       1.84540000      -0.35750000
O        1.20870000       3.18590000      -0.73570000
C        2.38940000       3.87860000      -1.00640000
C        3.01720000       3.75230000      -2.37110000
C        2.28410000       5.01700000      -1.96480000
H       -0.79400000       1.89140000      -0.31550000
H        2.01440000       1.76430000       0.56590000
H        1.94980000       1.27590000      -1.13630000
H        3.05160000       3.97980000      -0.14570000
H        4.09820000       3.77380000      -2.45340000
H        2.51770000       3.10510000      -3.08360000
H        1.30900000       5.18420000      -2.40740000
H        2.85570000       5.91590000      -1.76480000
