21
Properties=species:S:1:pos:R:3 gdb_58486=T pbc="F F F"
C        0.14060000       1.40640000      -0.33240000
C        0.00370000      -0.01000000       0.23210000
O        0.48080000      -0.07810000       1.57360000
C       -1.41640000      -0.56420000       0.11700000
C       -2.45500000       0.08880000       1.00960000
C       -1.85690000      -1.07020000      -1.22770000
C       -1.58380000      -2.06830000      -0.10860000
C       -0.46630000      -2.96150000      -0.19340000
C        0.45830000      -3.72810000      -0.26930000
H        1.17980000       1.73740000      -0.25420000
H       -0.16040000       1.44630000      -1.38350000
H       -0.48350000       2.11970000       0.21920000
H        0.66830000      -0.67650000      -0.32710000
H        0.08770000       0.65100000       2.06440000
H       -2.57850000       1.15260000       0.77720000
H       -3.43280000      -0.38570000       0.88580000
H       -2.17560000      -0.00330000       2.06450000
H       -2.88810000      -0.92270000      -1.53090000
H       -1.14090000      -1.05260000      -2.04250000
H       -2.46410000      -2.50200000       0.35860000
H        1.27920000      -4.39890000      -0.32330000
