12
Properties=species:S:1:pos:R:3 gdb_11184=T pbc="F F F"
O        0.02880000       0.00970000      -0.03230000
C       -0.04590000       1.19690000       0.03310000
C       -1.27620000       2.09010000       0.13520000
O       -0.75690000       3.36690000       0.46210000
C        0.58120000       3.38420000       0.00620000
O        1.03930000       2.02680000       0.03350000
C        0.70820000       3.93620000      -1.34680000
C        0.80370000       4.40660000      -2.44710000
H       -1.81740000       2.08830000      -0.82130000
H       -1.94610000       1.75340000       0.92850000
H        1.17670000       3.95700000       0.72230000
H        0.89250000       4.82180000      -3.42150000
