13
Properties=species:S:1:pos:R:3 gdb_56086=T pbc="F F F"
N       -0.12910000       1.29560000      -0.07360000
C        0.05290000      -0.04650000       0.02120000
O        1.10650000      -0.61790000       0.16930000
O       -1.14990000      -0.68400000      -0.10360000
C       -1.04480000      -2.11050000      -0.06470000
C       -2.38490000      -2.66930000      -0.01620000
C       -3.48250000      -3.16910000       0.02450000
C       -4.72720000      -3.72890000       0.07090000
N       -5.78580000      -4.20500000       0.11040000
H        0.65440000       1.88270000       0.15160000
H       -1.05650000       1.68150000      -0.03900000
H       -0.51130000      -2.47470000      -0.95100000
H       -0.46180000      -2.42230000       0.80890000
