19
Properties=species:S:1:pos:R:3 gdb_40142=T pbc="F F F"
C        0.15100000       1.49970000      -0.13500000
C        1.38210000       0.64490000       0.06820000
C        0.02460000       0.01580000       0.01660000
C       -0.70090000      -0.77150000       1.10010000
O       -1.18600000      -1.70620000       0.10690000
C       -0.52910000      -1.01490000      -0.96460000
C       -1.35180000      -0.66570000      -2.21900000
O       -0.38980000      -1.31590000      -3.07520000
C        0.33390000      -1.83620000      -1.94080000
H       -0.18610000       2.12360000       0.68680000
H       -0.00930000       1.93200000      -1.11760000
H        2.04670000       0.50430000      -0.77820000
H        1.88590000       0.68490000       1.02880000
H       -0.06670000      -1.26420000       1.84760000
H       -1.52380000      -0.25250000       1.60710000
H       -2.33100000      -1.16180000      -2.23090000
H       -1.47410000       0.39670000      -2.46120000
H        1.40410000      -1.60190000      -1.98620000
H        0.19820000      -2.91810000      -1.81350000
