14
Properties=species:S:1:pos:R:3 gdb_130327=T pbc="F F F"
N        0.20810000       1.30140000      -0.37930000
C        0.10560000      -0.04800000      -0.12610000
N       -1.02280000      -0.67550000       0.08760000
O       -0.66380000      -1.97830000       0.37900000
N        0.68430000      -2.14360000       0.32480000
C        1.18580000      -0.98000000       0.02450000
C        2.66420000      -0.74110000      -0.09490000
C        3.02310000      -0.02320000      -1.31720000
C        3.29230000       0.58830000      -2.31660000
H        0.96370000       1.54350000      -1.00700000
H       -0.66850000       1.73410000      -0.63560000
H        3.01160000      -0.16570000       0.77410000
H        3.17530000      -1.70830000      -0.05490000
H        3.55660000       1.10410000      -3.20710000
