19
Properties=species:S:1:pos:R:3 gdb_119123=T pbc="F F F"
C        0.11530000       1.44140000       0.22200000
N        0.30240000      -0.00530000       0.11830000
H        1.04660000      -0.30300000       0.74280000
H       -0.95800000      -1.25290000       0.27000000
C        0.59440000      -0.47510000      -1.24320000
C        0.64940000      -1.98930000      -1.29260000
C        1.50450000      -2.64720000      -2.30920000
N        1.91450000      -2.67250000      -0.89870000
C       -0.59270000      -2.75950000      -0.84090000
O       -0.84050000      -3.86730000      -1.23660000
O       -1.38510000      -2.11420000       0.02310000
H        0.97370000       2.01900000      -0.15490000
H       -0.76840000       1.73380000      -0.35340000
H       -0.05540000       1.71240000       1.26670000
H       -0.21280000      -0.11010000      -1.89100000
H        1.53550000      -0.05870000      -1.64170000
H        1.17150000      -3.60360000      -2.69610000
H        2.05010000      -2.01220000      -3.00240000
H        2.63630000      -1.96900000      -0.74510000
