16
Properties=species:S:1:pos:R:3 gdb_124108=T pbc="F F F"
C       -0.11060000       1.46170000      -0.02020000
C       -0.02650000       0.01120000      -0.01600000
C        0.03490000      -1.19400000      -0.01250000
C        0.12340000      -2.59730000      -0.00870000
C        1.19820000      -3.44870000      -0.01030000
C        2.65180000      -3.10450000      -0.01670000
C        0.58110000      -4.72860000      -0.00420000
N       -0.72780000      -4.66110000       0.00070000
O       -1.03200000      -3.31210000      -0.00210000
H        0.88750000       1.91250000      -0.02920000
H       -0.64990000       1.82340000      -0.90260000
H       -0.63660000       1.82930000       0.86780000
H        3.16300000      -3.50330000       0.86640000
H        3.15780000      -3.51490000      -0.89750000
H        2.78860000      -2.02040000      -0.02420000
H        1.05560000      -5.70060000      -0.00320000
