15
Properties=species:S:1:pos:R:3 gdb_34474=T pbc="F F F"
C        0.16440000      -1.19690000      -0.03410000
C        0.04240000       0.00170000       0.00060000
C       -0.03410000       1.40620000       0.04150000
C       -1.13500000       2.18740000       0.06120000
C       -0.70890000       3.63850000       0.10490000
O        0.71060000       3.62050000       0.10850000
C        1.19580000       2.28690000       0.07080000
C       -2.48670000       1.79630000       0.04580000
C       -3.65890000       1.51610000       0.03420000
H        0.25230000      -2.25480000      -0.06480000
H       -1.08220000       4.19630000      -0.76710000
H       -1.08730000       4.14440000       1.00580000
H        1.81950000       2.08170000       0.95380000
H        1.82460000       2.13360000      -0.81910000
H       -4.68690000       1.25010000       0.02360000
