19
Properties=species:S:1:pos:R:3 gdb_98290=T pbc="F F F"
C        0.78860000       1.43630000      -0.10690000
C        0.47010000      -0.05690000      -0.12430000
C        0.72570000      -0.72310000      -1.45340000
O        1.06830000      -0.12000000      -2.45060000
C        0.52630000      -2.24400000      -1.56630000
O        0.48490000      -2.62070000      -2.91910000
C        1.63060000      -3.05530000      -0.88320000
C        2.98070000      -2.54550000      -0.62970000
O        2.03770000      -2.71450000       0.44070000
H        1.84560000       1.61500000      -0.32210000
H        0.20770000       1.97180000      -0.86180000
H        0.56200000       1.86340000       0.87350000
H        1.03360000      -0.61680000       0.63290000
H       -0.58550000      -0.24060000       0.12410000
H       -0.42980000      -2.50400000      -1.08710000
H        0.82580000      -1.84730000      -3.39950000
H        1.51160000      -4.12450000      -1.05850000
H        3.82400000      -3.23260000      -0.61430000
H        3.22610000      -1.51410000      -0.87680000
