20
Properties=species:S:1:pos:R:3 gdb_58722=T pbc="F F F"
C       -0.00640000       1.46390000      -0.17380000
C       -0.01510000      -0.05620000       0.05700000
C        0.65060000      -0.42830000       1.39190000
C       -1.41120000      -0.58950000      -0.00170000
C       -2.39890000      -0.82240000      -1.11940000
C       -3.52210000      -0.43030000      -0.12990000
C       -3.13800000      -1.53620000       0.78530000
C       -2.00070000      -1.96900000      -0.17050000
N       -2.52890000      -0.17160000       0.97220000
H        1.01320000       1.85930000      -0.13050000
H       -0.43140000       1.71820000      -1.14960000
H       -0.60100000       1.96900000       0.59410000
H        0.54270000      -0.53810000      -0.75950000
H        0.08540000      -0.00760000       2.22970000
H        0.69090000      -1.51390000       1.52470000
H        1.67240000      -0.03910000       1.44020000
H       -2.28770000      -0.75910000      -2.19280000
H       -4.43670000       0.14250000      -0.22810000
H       -3.67890000      -2.03970000       1.57780000
H       -1.53840000      -2.91710000      -0.40700000
