18
Properties=species:S:1:pos:R:3 gdb_46269=T pbc="F F F"
O       -0.00590000      -0.00660000      -0.10440000
C       -0.00770000       1.19620000      -0.05830000
N       -1.01210000       2.13300000      -0.01020000
C       -0.12800000       3.30210000       0.03350000
C        1.06850000       2.30840000      -0.02210000
C        2.18930000       2.33920000       1.06380000
C        3.24380000       2.41400000      -0.04880000
C        3.08970000       1.24790000      -0.98300000
C        2.14190000       2.41160000      -1.10920000
H       -2.01720000       2.04390000      -0.00850000
H       -0.21990000       3.96680000      -0.83240000
H       -0.20240000       3.88820000       0.95590000
H        2.13190000       3.25030000       1.66500000
H        2.24440000       1.47350000       1.73140000
H        4.15040000       3.00480000      -0.01150000
H        3.83570000       1.18150000      -1.76850000
H        2.72170000       0.29120000      -0.62440000
H        2.04920000       2.99140000      -2.02000000
