16
Properties=species:S:1:pos:R:3 gdb_46974=T pbc="F F F"
O        0.10230000       0.02370000       0.27990000
C        0.04770000       1.18460000      -0.00780000
O       -1.11630000       1.90500000      -0.06950000
C       -0.82200000       3.31250000      -0.08840000
C        0.63460000       3.40620000      -0.57710000
C        1.65640000       4.29230000       0.18410000
C        2.74360000       3.29460000       0.54990000
C        2.35850000       2.05040000       0.26450000
N        1.09380000       2.02710000      -0.35680000
H       -1.53720000       3.80140000      -0.75170000
H       -0.94090000       3.71350000       0.92620000
H        0.66460000       3.62790000      -1.64960000
H        2.01890000       5.10780000      -0.44810000
H        1.22290000       4.75730000       1.08170000
H        3.67970000       3.56720000       1.01560000
H        2.86060000       1.11090000       0.44440000
