16
Properties=species:S:1:pos:R:3 gdb_65753=T pbc="F F F"
C        0.01480000       1.63700000      -0.07050000
C       -0.03840000       0.12070000      -0.02120000
C        0.68100000      -0.64810000      -1.16970000
N        1.62030000      -1.14490000      -0.15820000
C        1.00890000      -0.57040000       0.92020000
O        1.20710000      -0.59630000       2.10590000
O       -1.38080000      -0.34940000       0.12440000
C       -1.94370000      -0.30460000       1.36070000
O       -3.08280000      -0.61550000       1.53500000
H        1.03150000       1.98120000      -0.28090000
H       -0.65560000       2.01130000      -0.84970000
H       -0.29410000       2.06260000       0.88870000
H        0.05560000      -1.41950000      -1.62500000
H        1.13800000      -0.02000000      -1.93970000
H        2.40290000      -1.77910000      -0.21930000
H       -1.24460000       0.01840000       2.14850000
