16
Properties=species:S:1:pos:R:3 gdb_22865=T pbc="F F F"
N       -0.03030000       1.30570000      -0.08200000
C       -0.05890000      -0.05890000       0.00430000
N       -1.12230000      -0.76850000       0.07910000
C       -0.75140000      -2.18200000       0.18490000
C        0.75430000      -2.22220000       0.02440000
N        1.55110000      -3.17850000      -0.21940000
O        0.88090000      -4.40630000      -0.30070000
C        1.26580000      -0.80120000       0.09740000
O        2.14680000      -0.40980000      -0.93990000
H        0.78550000       1.68760000      -0.53730000
H       -0.90390000       1.73580000      -0.34930000
H       -1.06320000      -2.60730000       1.14910000
H       -1.24940000      -2.78150000      -0.58660000
H        1.59370000      -5.02160000      -0.50450000
H        1.72850000      -0.60570000       1.08030000
H        2.72980000      -1.15990000      -1.10700000
