23
Properties=species:S:1:pos:R:3 gdb_40075=T pbc="F F F"
C       -0.36040000       1.32210000      -0.22970000
C        1.09690000       0.97890000      -0.01830000
C        0.06850000      -0.11410000      -0.02780000
C       -0.32620000      -0.87620000       1.23500000
C       -1.42250000      -1.84990000       0.77180000
C       -2.83300000      -1.23670000       0.52710000
C       -2.64810000      -1.39750000      -1.00800000
C       -1.23500000      -2.01270000      -0.78390000
C       -0.03710000      -1.12720000      -1.16530000
H       -0.88690000       1.82170000       0.57720000
H       -0.67020000       1.63350000      -1.22210000
H        1.76740000       1.06010000      -0.86800000
H        1.55090000       1.24820000       0.93020000
H        0.53790000      -1.44160000       1.60910000
H       -0.65650000      -0.21660000       2.04520000
H       -1.43270000      -2.77010000       1.35970000
H       -3.65410000      -1.82350000       0.94650000
H       -2.94420000      -0.20540000       0.87330000
H       -3.36180000      -2.07780000      -1.47940000
H       -2.64970000      -0.46180000      -1.57390000
H       -1.12940000      -3.03350000      -1.15720000
H       -0.15150000      -0.65510000      -2.14730000
H        0.87660000      -1.73570000      -1.20250000
