19
Properties=species:S:1:pos:R:3 gdb_126142=T pbc="F F F"
C       -0.07570000       1.53340000       0.09150000
C        0.00910000       0.00840000      -0.01120000
C        0.77510000      -0.49660000      -1.25860000
C        2.26210000      -0.09260000      -1.25630000
C        0.63450000      -1.98050000      -1.38450000
C        0.04370000      -2.79040000      -2.30740000
N        0.22870000      -4.08630000      -1.89010000
N        0.87010000      -4.12250000      -0.81300000
O        1.16120000      -2.75840000      -0.43800000
H        0.90820000       1.99350000       0.22160000
H       -0.53280000       1.96750000      -0.80490000
H       -0.68860000       1.82480000       0.94950000
H        0.48630000      -0.40480000       0.88500000
H       -1.00470000      -0.40780000      -0.03840000
H        0.29810000      -0.06620000      -2.14820000
H        2.77150000      -0.49840000      -0.37730000
H        2.77140000      -0.47150000      -2.14690000
H        2.36730000       0.99460000      -1.24560000
H       -0.48450000      -2.54950000      -3.21370000
