17
Properties=species:S:1:pos:R:3 gdb_40869=T pbc="F F F"
C        0.02400000       1.39340000      -0.23710000
C        1.49990000       1.54270000       0.17530000
C        1.34150000       0.11730000       0.72170000
O       -0.00640000       0.01860000       0.21760000
C        2.20790000      -1.10140000       0.45810000
C        3.12490000      -1.18220000       1.68580000
O        2.87810000      -0.03300000       2.50600000
C        1.46910000      -0.25590000       2.22290000
C        1.75170000      -1.73830000       1.78050000
H       -0.68770000       2.01880000       0.31520000
H       -0.19330000       1.46760000      -1.30830000
H        2.20250000       1.63260000      -0.65520000
H        1.73120000       2.30220000       0.92390000
H        2.42660000      -1.58310000      -0.48610000
H        4.10600000      -1.63800000       1.69390000
H        0.78610000       0.12090000       2.98140000
H        1.33580000      -2.70430000       2.02470000
