14
Properties=species:S:1:pos:R:3 gdb_130266=T pbc="F F F"
N        0.15030000       1.40210000       0.03840000
C        0.09800000       0.02830000      -0.08550000
N       -0.79130000      -0.55240000      -0.86360000
O       -0.48690000      -1.92440000      -0.80840000
C        0.55730000      -2.10300000       0.01080000
C        1.00660000      -3.52360000       0.17890000
C        2.11010000      -3.65010000       1.12740000
N        2.98230000      -3.74510000       1.87790000
C        0.98860000      -0.92020000       0.51040000
H        0.43230000       1.73380000       0.94890000
H       -0.68240000       1.86670000      -0.29740000
H        0.16730000      -4.14180000       0.52030000
H        1.31760000      -3.93490000      -0.78960000
H        1.81230000      -0.74270000       1.18120000
