15
Properties=species:S:1:pos:R:3 gdb_79671=T pbc="F F F"
O        0.11400000       1.42540000      -0.04680000
C       -0.04230000       0.05900000       0.04850000
C       -0.42110000      -0.75100000       1.25460000
C       -1.61450000      -0.17240000       2.05310000
O       -2.02720000       1.08900000       1.47450000
C       -2.46930000      -0.14410000       0.87640000
C       -1.34390000      -0.73820000      -0.03080000
C       -1.59280000      -1.77780000      -0.96040000
C       -1.82500000      -2.65570000      -1.75230000
H       -0.59540000       1.81490000       0.48270000
H        0.72990000      -0.43720000      -0.53480000
H        0.16410000      -1.58840000       1.61340000
H       -1.83390000      -0.32980000       3.10100000
H       -3.53340000      -0.28830000       0.73960000
H       -2.02150000      -3.42670000      -2.45520000
