14
Properties=species:S:1:pos:R:3 gdb_18696=T pbc="F F F"
O        0.00870000       0.01930000       0.26580000
C       -0.01180000       1.18780000       0.00030000
O       -1.20140000       1.82110000      -0.21540000
C       -1.14630000       3.08050000      -0.89380000
O       -0.30570000       3.98940000      -0.25780000
C        1.02630000       3.54170000      -0.24990000
C        1.52110000       3.01390000       1.05450000
C        1.20710000       2.05200000      -0.09150000
H       -0.83510000       2.90480000      -1.93370000
H       -2.15850000       3.48380000      -0.85890000
H        1.68660000       4.10180000      -0.90650000
H        2.56650000       3.13780000       1.31100000
H        0.82790000       3.05310000       1.88640000
H        2.05200000       1.56030000      -0.55710000
