18
Properties=species:S:1:pos:R:3 gdb_18976=T pbc="F F F"
C       -0.04640000       1.61680000      -0.00840000
C        1.45810000       1.24640000      -0.00240000
C        1.12710000       0.16680000       1.07620000
C        2.09570000      -1.00950000       1.17650000
C        2.05960000      -1.78630000      -0.14180000
O        1.98780000      -0.91210000      -1.26030000
C        1.10680000       0.16120000      -1.06460000
C       -0.02590000       0.06730000       0.01240000
H       -0.42500000       2.10000000       0.89560000
H       -0.43720000       2.09410000      -0.91190000
H        2.31440000       1.92300000      -0.00880000
H        0.82830000       0.56570000       2.05070000
H        3.10600000      -0.63650000       1.38620000
H        1.82300000      -1.67970000       1.99960000
H        2.94770000      -2.40740000      -0.28650000
H        1.18100000      -2.45030000      -0.14460000
H        0.81890000       0.52650000      -2.05420000
H       -0.88890000      -0.60070000       0.02300000
