19
Properties=species:S:1:pos:R:3 gdb_33501=T pbc="F F F"
C       -0.33600000      -1.14610000       0.34420000
C       -0.23330000       0.04550000       0.21350000
C       -0.09440000       1.47190000       0.05650000
C       -1.22380000       2.19770000      -0.65720000
N       -1.41890000       1.69810000      -2.01080000
C       -2.42850000       0.65810000      -2.18560000
C       -2.68720000       2.05070000      -2.64080000
C        0.67880000       2.19430000       1.11640000
N        1.25950000       2.01170000      -0.21610000
H       -0.42940000      -2.19790000       0.45730000
H       -2.14200000       2.12410000      -0.04530000
H       -0.94520000       3.25440000      -0.72200000
H       -2.18100000      -0.12220000      -2.89890000
H       -2.96400000       0.31340000      -1.30290000
H       -3.40000000       2.63710000      -2.06210000
H       -2.63360000       2.31200000      -3.69380000
H        0.40470000       3.21750000       1.36090000
H        1.05600000       1.60770000       1.94850000
H        1.93550000       1.25210000      -0.20310000
