19
Properties=species:S:1:pos:R:3 gdb_40991=T pbc="F F F"
C       -0.03770000       1.56330000       0.16270000
C        1.51300000       1.49160000      -0.16190000
C        1.18110000       0.12700000      -0.80550000
C       -0.09770000      -0.00660000       0.01470000
C       -0.33680000      -0.93670000      -1.19730000
C        0.33860000       0.08560000      -2.14340000
C        1.17020000      -0.69480000      -3.15480000
O        1.69890000      -1.75060000      -2.32910000
C        1.19710000      -1.41720000      -1.06430000
H       -0.30480000       1.93940000       1.15240000
H       -0.59870000       2.12560000      -0.58530000
H        1.94560000       2.26870000      -0.79820000
H        2.10740000       1.40270000       0.75220000
H        0.00260000      -0.50630000       0.98300000
H       -1.17820000      -1.59440000      -1.43690000
H       -0.20230000       0.96400000      -2.49110000
H        0.58070000      -1.12710000      -3.97260000
H        1.99220000      -0.10680000      -3.58310000
H        1.51270000      -2.13080000      -0.30380000
