19
Properties=species:S:1:pos:R:3 gdb_105707=T pbc="F F F"
O        0.38970000       1.21760000      -0.32750000
C        0.11990000      -0.09800000       0.11480000
C       -1.36280000      -0.43910000       0.15290000
C       -2.13080000       0.17710000       1.29610000
O       -1.99990000       1.61620000       1.28990000
C       -3.04850000       2.35510000       0.87180000
O       -2.99170000       3.53970000       0.74720000
C       -2.07160000      -0.63100000      -1.16470000
C       -1.79270000      -1.82120000      -0.28300000
H       -0.09010000       1.82220000       0.25010000
H        0.62660000      -0.76260000      -0.59290000
H        0.56060000      -0.28830000       1.10860000
H       -3.19290000      -0.09520000       1.25560000
H       -1.73010000      -0.14560000       2.26220000
H       -3.95070000       1.74260000       0.67900000
H       -3.09990000      -0.29590000      -1.25570000
H       -1.48390000      -0.50220000      -2.06640000
H       -1.01710000      -2.51800000      -0.58190000
H       -2.62820000      -2.28740000       0.22960000
