12
Properties=species:S:1:pos:R:3 gdb_21338=T pbc="F F F"
N       -0.28450000      -0.87990000      -0.87780000
C       -0.10450000       0.07940000      -0.26050000
C        0.12030000       1.30790000       0.50210000
C        1.45580000       1.93900000       0.21030000
N        2.18930000       2.36240000       1.21210000
O        3.32220000       2.91790000       0.63680000
C        3.23420000       2.80400000      -0.69620000
C        2.07520000       2.19270000      -1.04610000
H       -0.68840000       2.01020000       0.26510000
H        0.05580000       1.09400000       1.57300000
H        4.06710000       3.19770000      -1.25760000
H        1.71680000       1.94610000      -2.03110000
