19
Properties=species:S:1:pos:R:3 gdb_72946=T pbc="F F F"
O       -0.38250000       1.28640000      -0.24800000
C        0.01180000      -0.02320000       0.01490000
C       -1.17690000      -0.96910000       0.23600000
O       -0.58040000      -1.51540000       1.43940000
C        0.53320000      -0.60180000       1.37330000
C        1.80280000      -1.15530000       0.65540000
C        1.70630000      -2.58970000       0.06380000
C        1.29220000      -1.99430000      -1.31990000
C        1.29180000      -0.56830000      -0.70500000
H        0.40330000       1.82130000      -0.40150000
H       -2.09550000      -0.41390000       0.45990000
H       -1.38600000      -1.73780000      -0.51500000
H        0.66920000      -0.03580000       2.29930000
H        2.75440000      -0.85690000       1.09800000
H        2.65450000      -3.13080000       0.04990000
H        0.95030000      -3.20950000       0.54790000
H        2.06930000      -2.11080000      -2.07940000
H        0.35140000      -2.34610000      -1.75070000
H        1.83390000       0.20810000      -1.25320000
