20
Properties=species:S:1:pos:R:3 gdb_118733=T pbc="F F F"
C        0.05340000       1.61080000      -0.06950000
C       -0.03280000       0.08380000      -0.03980000
C       -1.47040000      -0.44740000      -0.01480000
C       -2.28510000      -0.04120000       1.20910000
O       -3.53470000      -0.70670000       1.12050000
C        0.88350000      -0.62930000      -1.09050000
C        1.70120000      -1.14240000       0.11780000
O        2.69220000      -1.80280000       0.27760000
N        0.83990000      -0.52630000       0.99180000
H        1.09380000       1.93410000      -0.16560000
H       -0.51360000       2.01450000      -0.91480000
H       -0.35040000       2.05680000       0.84530000
H       -1.99630000      -0.10880000      -0.91550000
H       -1.44480000      -1.54190000      -0.04970000
H       -1.74510000      -0.33050000       2.12630000
H       -2.42100000       1.05070000       1.23880000
H       -4.06860000      -0.45070000       1.87830000
H        0.40160000      -1.41520000      -1.67500000
H        1.43800000       0.03690000      -1.75380000
H        0.88570000      -0.41150000       1.99410000
