16
Properties=species:S:1:pos:R:3 gdb_34374=T pbc="F F F"
N       -0.01020000      -1.08140000      -0.42980000
C       -0.00390000       0.05010000      -0.19380000
C       -0.04640000       1.47920000       0.09730000
C       -0.41050000       2.36900000      -1.13460000
C        1.06570000       2.84690000      -1.14010000
N        1.31040000       2.12690000       0.15590000
C        1.24940000       2.89930000       1.32920000
N        0.25430000       2.75950000       2.11040000
C       -0.66980000       1.80180000       1.49190000
H       -0.75550000       1.83940000      -2.02260000
H       -1.12530000       3.15210000      -0.87430000
H        1.67240000       2.42670000      -1.94510000
H        1.23140000       3.92560000      -1.08650000
H        2.07280000       3.57830000       1.53500000
H       -1.67240000       2.23600000       1.41110000
H       -0.74830000       0.90130000       2.10850000
