17
Properties=species:S:1:pos:R:3 gdb_99491=T pbc="F F F"
C       -0.20850000       1.40600000       0.13720000
N       -0.16310000      -0.03400000       0.31870000
C        0.94260000      -0.67190000       0.76830000
O        1.98770000      -0.12370000       1.06510000
C        0.84440000      -2.21020000       0.91490000
C        1.26950000      -2.62730000       2.35230000
O        1.38690000      -4.02160000       2.48830000
C       -0.46440000      -2.76880000       0.59090000
N       -1.51760000      -3.19200000       0.36560000
H        0.77200000       1.80300000       0.40080000
H       -0.43400000       1.66200000      -0.90300000
H       -0.96630000       1.86000000       0.78420000
H       -0.98420000      -0.57750000       0.10280000
H        1.58140000      -2.63800000       0.22610000
H        2.25420000      -2.19280000       2.52820000
H        0.56590000      -2.19420000       3.07700000
H        0.50400000      -4.40750000       2.48060000
