18
Properties=species:S:1:pos:R:3 gdb_71890=T pbc="F F F"
O       -0.03600000       1.42830000       0.10640000
C       -0.01450000       0.03640000       0.01360000
C        0.34510000      -0.64710000      -1.32320000
N       -0.77680000      -1.63540000      -1.17040000
C       -0.40340000      -2.72310000      -0.20270000
C       -0.67790000      -1.80360000       1.00680000
O       -1.37630000      -2.28890000       2.11270000
C        0.47310000      -0.78350000       1.24290000
C       -1.32240000      -0.81070000      -0.00690000
H        0.86480000       1.73920000       0.25220000
H        0.13630000       0.01130000      -2.17230000
H        1.34240000      -1.08740000      -1.44100000
H       -1.14060000      -3.53010000      -0.26080000
H        0.60260000      -3.13930000      -0.33350000
H       -0.75830000      -2.76220000       2.68140000
H        1.50590000      -1.14820000       1.25730000
H        0.25770000      -0.21500000       2.15240000
H       -2.34770000      -0.44700000      -0.01800000
