18
Properties=species:S:1:pos:R:3 gdb_91991=T pbc="F F F"
O       -0.16070000       1.13710000       1.34500000
C       -0.07250000       0.15950000       0.31880000
C        0.85910000      -1.01800000       0.68200000
C       -0.05180000      -2.04080000       1.34330000
C       -1.01290000      -1.56590000       2.37270000
N       -1.45980000      -1.77720000       0.98320000
C       -1.45690000      -0.54300000       0.15640000
C       -2.60770000       0.31140000       0.41130000
C       -3.57140000       1.00300000       0.59840000
H        0.70430000       1.54880000       1.43700000
H        0.22130000       0.63370000      -0.62680000
H        1.30000000      -1.44650000      -0.22530000
H        1.68380000      -0.68870000       1.32310000
H        0.25730000      -3.08230000       1.32920000
H       -1.43200000      -2.27680000       3.07880000
H       -0.91460000      -0.54880000       2.73480000
H       -1.51070000      -0.89360000      -0.88290000
H       -4.41840000       1.61860000       0.77390000
