17
Properties=species:S:1:pos:R:3 gdb_28214=T pbc="F F F"
C        0.03700000       1.42060000       0.07480000
C       -0.00590000      -0.05870000      -0.05040000
N       -0.15950000      -0.76750000      -1.13830000
C       -0.06490000      -2.06200000      -0.67700000
C        0.15540000      -2.08460000       0.64850000
C        0.04760000      -3.45230000       1.22440000
C        0.12970000      -4.25750000      -0.12770000
N       -0.30490000      -3.32990000      -1.22300000
O        0.16220000      -0.78930000       1.09520000
H        1.03240000       1.76660000       0.37590000
H       -0.21160000       1.86340000      -0.89000000
H       -0.67500000       1.77330000       0.82770000
H        0.84210000      -3.75460000       1.91380000
H       -0.91210000      -3.62210000       1.73270000
H        1.16960000      -4.57250000      -0.28360000
H       -0.50110000      -5.14900000      -0.11450000
H        0.16760000      -3.51500000      -2.10020000
