23
Properties=species:S:1:pos:R:3 gdb_122660=T pbc="F F F"
O        0.01640000       1.48220000      -0.06100000
C        0.07400000       0.06310000      -0.05330000
C       -1.35150000      -0.46620000       0.03130000
C       -1.41820000      -1.99640000       0.05000000
C       -2.84680000      -2.56340000       0.09600000
C       -2.89620000      -4.11150000      -0.02850000
C       -4.06250000      -4.57800000       0.87790000
C       -4.24860000      -3.40480000       1.81120000
C       -3.60020000      -2.32100000       1.38880000
H        0.91550000       1.81920000      -0.11070000
H        0.55970000      -0.32080000      -0.96590000
H        0.65950000      -0.30690000       0.80480000
H       -1.81720000      -0.04720000       0.93080000
H       -1.91710000      -0.07460000      -0.82340000
H       -0.91690000      -2.38960000      -0.84540000
H       -0.85660000      -2.38410000       0.91120000
H       -3.40910000      -2.10410000      -0.73330000
H       -2.99800000      -4.44640000      -1.06420000
H       -1.95500000      -4.52440000       0.35300000
H       -4.98080000      -4.76130000       0.30150000
H       -3.84090000      -5.51460000       1.40220000
H       -4.87740000      -3.45320000       2.69390000
H       -3.62580000      -1.35260000       1.87660000
