19
Properties=species:S:1:pos:R:3 gdb_15227=T pbc="F F F"
C        0.35790000      -0.21080000      -1.84440000
C        0.13480000      -0.45960000      -0.34770000
C       -1.30100000      -0.84920000      -0.06010000
C       -1.74780000      -2.29150000      -0.02640000
C       -0.79430000      -3.35210000      -0.20000000
C       -0.02370000      -4.26570000      -0.34400000
N       -1.75820000      -1.44700000       1.18530000
C       -0.81510000      -1.72680000       2.26090000
H        1.38340000       0.11660000      -2.03950000
H        0.17880000      -1.12340000      -2.42120000
H       -0.31760000       0.56410000      -2.22330000
H        0.82070000      -1.23770000      -0.00360000
H        0.37380000       0.45010000       0.21830000
H       -2.02620000      -0.14630000      -0.47390000
H       -2.74430000      -2.53060000      -0.39300000
H        0.65470000      -5.07200000      -0.47560000
H        0.14270000      -2.15690000       1.94190000
H       -0.62040000      -0.79540000       2.80150000
H       -1.28410000      -2.42990000       2.95590000
