16
Properties=species:S:1:pos:R:3 gdb_20305=T pbc="F F F"
C       -0.22330000       1.17510000      -0.40630000
O        0.87430000       1.50100000       0.44710000
C        0.58170000       0.11610000       0.21570000
C        0.09590000      -0.64810000       1.40110000
C       -0.38340000      -2.09420000       1.37110000
C        0.51310000      -2.93020000       0.46400000
O        1.71070000      -2.42610000       1.11770000
C        0.90580000      -1.71960000       2.06780000
H       -1.21080000       1.40260000      -0.00530000
H       -0.08730000       1.41420000      -1.46050000
H        1.32510000      -0.39470000      -0.39320000
H       -0.47530000      -0.04320000       2.10190000
H       -1.34210000      -2.39800000       1.76880000
H        0.41320000      -4.00730000       0.63750000
H        0.50330000      -2.72790000      -0.61290000
H        1.22280000      -1.72610000       3.10430000
