11
Properties=species:S:1:pos:R:3 gdb_2742=T pbc="F F F"
O       -0.10250000       0.06060000      -0.25460000
C       -0.02390000       1.21610000      -0.00830000
O       -1.02150000       2.08010000       0.35190000
C       -0.09520000       3.20020000       0.50610000
C        1.08100000       2.30830000       0.03630000
C        2.19980000       2.09750000       0.92460000
C        3.12020000       1.92150000       1.67610000
H       -0.36830000       4.02540000      -0.15310000
H       -0.04450000       3.52360000       1.54630000
H        1.41710000       2.54910000      -0.97750000
H        3.93610000       1.75880000       2.33640000
