15
Properties=species:S:1:pos:R:3 gdb_16917=T pbc="F F F"
N       -0.06910000       1.26100000      -0.00330000
C       -0.02980000      -0.00010000      -0.00580000
O        1.09810000      -0.77860000      -0.01750000
C        0.61960000      -2.17590000       0.01460000
C       -0.61440000      -2.07270000      -0.89540000
C       -1.22040000      -0.95750000       0.00550000
C       -1.13750000      -1.64370000       1.37160000
C       -0.02930000      -2.38990000       1.37590000
H        0.87700000       1.64780000      -0.00400000
H        1.45190000      -2.81200000      -0.27590000
H       -0.36730000      -1.74350000      -1.90840000
H       -1.22110000      -2.97840000      -0.91700000
H       -2.16300000      -0.49490000      -0.27180000
H       -1.82010000      -1.45120000       2.18810000
H        0.40280000      -2.95050000       2.19310000
