20
Properties=species:S:1:pos:R:3 gdb_113914=T pbc="F F F"
N       -1.62100000       1.15950000       1.30640000
H       -1.62500000       0.14500000       1.35680000
H       -2.15870000       1.40740000       0.48000000
H       -2.63630000       1.86310000       2.62120000
C       -0.23460000       1.64660000       1.16010000
C       -0.10750000       3.15550000       1.30180000
C       -1.29970000       4.08240000       1.30470000
C       -0.49780000       3.88770000       2.57100000
C       -1.01650000       3.15920000       3.82000000
C       -2.53420000       3.20270000       4.01170000
O       -3.07760000       3.92730000       4.80390000
O       -3.23740000       2.36900000       3.22790000
H        0.36530000       1.15060000       1.93380000
H        0.19730000       1.34800000       0.19420000
H        0.78310000       3.53470000       0.80860000
H       -1.21250000       5.03150000       0.78760000
H       -2.29450000       3.65480000       1.26930000
H        0.15080000       4.72150000       2.81820000
H       -0.68810000       2.11290000       3.82030000
H       -0.58400000       3.63120000       4.70300000
