19
Properties=species:S:1:pos:R:3 gdb_26416=T pbc="F F F"
C       -0.13140000       1.49610000       0.20770000
C       -0.25400000      -0.00080000      -0.07630000
O       -1.44220000      -0.27940000      -0.82370000
C        0.91990000      -0.53000000      -0.90450000
C        0.94920000      -2.02130000      -1.06220000
C       -0.06190000      -2.87830000      -1.42080000
N        0.50390000      -4.13470000      -1.42490000
C        1.81210000      -3.99060000      -1.07510000
N        2.11470000      -2.73320000      -0.84920000
H        0.76330000       1.71220000       0.80050000
H       -0.07560000       2.06030000      -0.72880000
H       -0.99900000       1.85830000       0.77160000
H       -0.28030000      -0.55030000       0.87830000
H       -2.19590000      -0.00480000      -0.29230000
H        0.88210000      -0.03450000      -1.88420000
H        1.85910000      -0.23010000      -0.43090000
H       -1.09630000      -2.70420000      -1.65690000
H        0.03310000      -4.99680000      -1.64150000
H        2.48680000      -4.83040000      -1.00070000
