20
Properties=species:S:1:pos:R:3 gdb_76816=T pbc="F F F"
C        0.03150000       1.52590000       0.08240000
C        0.03810000       0.01280000       0.05470000
N        1.08350000      -0.64640000      -0.85500000
C        0.69360000      -0.94380000      -2.21960000
C        1.15360000      -1.78610000       0.10390000
C        2.03200000      -2.02280000       1.39380000
C        2.23650000      -0.52090000       1.54040000
C        0.75440000      -0.80570000       1.15940000
O        0.73310000      -1.89480000       2.18860000
H        1.02120000       1.91450000       0.33570000
H       -0.25380000       1.92920000      -0.89540000
H       -0.69190000       1.89150000       0.81830000
H       -0.96250000      -0.39610000      -0.15440000
H        0.50180000      -0.01210000      -2.76230000
H        1.51300000      -1.46390000      -2.72580000
H       -0.21170000      -1.57460000      -2.28860000
H        0.43300000      -2.58710000      -0.09600000
H        2.65890000      -2.86460000       1.70040000
H        2.39220000      -0.17780000       2.56300000
H        2.85090000      -0.01340000       0.79780000
