17
Properties=species:S:1:pos:R:3 gdb_33938=T pbc="F F F"
C        0.10980000      -1.16640000       0.07880000
C        0.06760000       0.03430000       0.02890000
C       -0.03320000       1.46550000      -0.01850000
C        0.26660000       2.25190000      -1.25640000
N        1.21800000       2.27920000      -0.14500000
C        1.11210000       3.42350000       0.79140000
C       -0.22360000       3.33460000       1.51860000
N       -1.39610000       3.48300000       0.63410000
C       -0.93250000       2.13350000       1.01030000
H        0.16460000      -2.22610000       0.11550000
H        0.62690000       1.72580000      -2.13600000
H       -0.36290000       3.11740000      -1.43660000
H        1.92930000       3.33560000       1.51520000
H        1.23560000       4.36730000       0.25080000
H       -0.29490000       3.65640000       2.55340000
H       -2.21660000       3.72540000       1.18420000
H       -1.55160000       1.50220000       1.63610000
