15
Properties=species:S:1:pos:R:3 gdb_48568=T pbc="F F F"
O       -0.67540000       1.10080000      -0.55120000
C        0.32080000       0.92330000       0.11160000
C        1.46930000       1.85350000       0.13640000
N        2.60590000       1.55240000       0.97800000
C        3.20840000       2.66480000       1.12380000
N        2.65790000       3.80650000       0.42060000
C        3.00210000       3.46200000      -1.05090000
C        1.69370000       2.71370000      -1.16120000
C        1.25240000       3.34840000       0.11000000
H        0.44490000       0.03840000       0.76950000
H        4.14480000       2.78170000       1.65960000
H        2.99880000       4.38600000      -1.63120000
H        3.94930000       2.93120000      -1.18910000
H        1.11580000       2.46200000      -2.04010000
H        0.36490000       3.88590000       0.41860000
