16
Properties=species:S:1:pos:R:3 gdb_4797=T pbc="F F F"
C        0.03900000       1.37490000       0.04640000
O        0.01630000      -0.05150000      -0.02230000
C        0.61800000      -0.56820000      -1.10110000
N        1.21000000       0.06710000      -2.07690000
C        1.66200000      -0.93310000      -2.93380000
C        2.40120000      -0.59910000      -4.18690000
C        1.32490000      -2.16120000      -2.44320000
N        0.64650000      -1.91730000      -1.25160000
H        1.06800000       1.74540000       0.07220000
H       -0.46770000       1.81260000      -0.81860000
H       -0.48370000       1.63560000       0.96740000
H        3.31760000      -0.03930000      -3.96900000
H        2.67670000      -1.50590000      -4.73240000
H        1.79400000       0.02760000      -4.84970000
H        1.49210000      -3.16110000      -2.80650000
H        0.25070000      -2.59000000      -0.61840000
