18
Properties=species:S:1:pos:R:3 gdb_99936=T pbc="F F F"
C        0.01420000       1.53890000       0.16300000
C       -0.04560000       0.02300000      -0.04090000
C        0.69290000      -0.47130000      -1.31370000
C        0.11130000       0.11930000      -2.60620000
O        2.06590000      -0.07710000      -1.29660000
C        0.60670000      -1.94140000      -1.35950000
C        0.55340000      -3.14930000      -1.36080000
C        0.49280000      -4.51330000      -1.37040000
N        0.44040000      -5.67390000      -1.37530000
H        1.04600000       1.89590000       0.11210000
H       -0.56840000       2.07670000      -0.59020000
H       -0.39310000       1.80220000       1.14320000
H        0.40680000      -0.48460000       0.82040000
H       -1.08460000      -0.32220000      -0.08550000
H        0.24600000       1.20270000      -2.60170000
H        0.63600000      -0.29080000      -3.47120000
H       -0.95300000      -0.11180000      -2.69270000
H        2.48760000      -0.48390000      -0.53080000
