14
Properties=species:S:1:pos:R:3 gdb_4975=T pbc="F F F"
C       -0.04630000       1.53230000      -0.04340000
C       -0.00740000       0.03220000      -0.02870000
N       -0.08740000      -0.63730000      -1.17130000
C       -0.04930000      -1.97800000      -1.12180000
C        0.06950000      -2.65660000       0.07800000
N        0.15200000      -2.00310000       1.24600000
C        0.11370000      -0.68510000       1.18490000
O        0.19420000       0.01220000       2.33660000
H        0.86590000       1.95390000       0.39300000
H       -0.15060000       1.88340000      -1.07080000
H       -0.88140000       1.91020000       0.55650000
H       -0.11600000      -2.50940000      -2.06600000
H        0.10010000      -3.74160000       0.11790000
H        0.27060000      -0.64210000       3.04560000
