23
Properties=species:S:1:pos:R:3 gdb_77527=T pbc="F F F"
C       -0.19370000       1.65950000      -0.02620000
C        0.02150000       0.15520000       0.01360000
C        1.17010000      -0.57130000      -0.74230000
C        1.08800000      -1.00110000      -2.18060000
C        2.45410000       0.12740000      -0.23240000
C        2.10940000       0.11830000       1.28570000
C        0.73290000      -0.58290000       1.18320000
C        0.03890000      -1.02880000       2.43990000
O        1.04140000      -1.65890000       0.23430000
H        0.71750000       2.22610000       0.18410000
H       -0.55770000       1.97270000      -1.01120000
H       -0.94820000       1.96240000       0.70840000
H       -0.91080000      -0.37640000      -0.20120000
H        1.14370000      -0.13090000      -2.84330000
H        1.91910000      -1.66920000      -2.43030000
H        0.15120000      -1.52950000      -2.37900000
H        3.33730000      -0.47060000      -0.46950000
H        2.59570000       1.12920000      -0.64820000
H        2.80510000      -0.48450000       1.87420000
H        2.05490000       1.11500000       1.73320000
H       -0.19920000      -0.16640000       3.07160000
H       -0.89040000      -1.55690000       2.20840000
H        0.68240000      -1.70200000       3.01640000
