15
Properties=species:S:1:pos:R:3 gdb_21963=T pbc="F F F"
O       -0.07390000       1.43600000       0.01070000
C        0.04150000       0.02770000       0.00230000
C       -1.38770000      -0.51860000       0.01180000
N       -1.42230000      -1.97070000       0.00460000
C       -1.41440000      -2.81050000      -1.07470000
N       -1.39510000      -4.06250000      -0.69720000
N       -1.38550000      -4.06960000       0.68450000
C       -1.39950000      -2.82150000       1.07500000
H        0.80870000       1.81720000       0.00520000
H        0.56680000      -0.34140000      -0.89190000
H        0.58210000      -0.35070000       0.88350000
H       -1.91130000      -0.15430000       0.89950000
H       -1.92660000      -0.14500000      -0.86270000
H       -1.43280000      -2.45460000      -2.09360000
H       -1.40360000      -2.47610000       2.09770000
