19
Properties=species:S:1:pos:R:3 gdb_70028=T pbc="F F F"
C       -0.20950000       1.47000000      -0.00190000
C        0.12350000       0.01560000      -0.04990000
O       -0.80060000      -0.91310000       0.54310000
C        0.56730000      -0.95720000       0.97180000
C        1.34130000      -1.80230000      -0.05720000
C        0.73160000      -3.12600000      -0.54010000
C       -0.24750000      -2.70090000      -1.66280000
O        0.20160000      -1.43140000      -2.15670000
C        0.90770000      -0.76650000      -1.14520000
H        0.67580000       2.07820000      -0.21420000
H       -0.97210000       1.71480000      -0.74960000
H       -0.59650000       1.74440000       0.98330000
H        0.75690000      -0.82780000       2.03190000
H        2.41420000      -1.84700000       0.13440000
H        1.51860000      -3.77120000      -0.94100000
H        0.21570000      -3.67450000       0.25180000
H       -0.24880000      -3.39320000      -2.51090000
H       -1.26620000      -2.61360000      -1.27410000
H        1.70570000      -0.16820000      -1.59510000
