19
Properties=species:S:1:pos:R:3 gdb_56168=T pbc="F F F"
C       -0.27790000       1.40890000      -0.11180000
C        0.00020000      -0.06490000       0.05680000
O        0.25490000      -0.62150000       1.09420000
O       -0.07660000      -0.70360000      -1.13200000
C        0.15480000      -2.12270000      -1.09210000
C        0.13830000      -2.63740000      -2.51030000
C        1.09620000      -1.98440000      -3.48040000
C       -0.32000000      -4.01780000      -2.72690000
O       -1.17130000      -2.91240000      -3.02920000
H        0.42150000       1.84530000      -0.83030000
H       -1.28600000       1.55410000      -0.51040000
H       -0.18400000       1.90790000       0.85180000
H        1.11890000      -2.31690000      -0.61020000
H       -0.62800000      -2.60240000      -0.49850000
H        2.13230000      -2.11230000      -3.14860000
H        0.98950000      -2.42520000      -4.47390000
H        0.89310000      -0.91260000      -3.54950000
H        0.05690000      -4.57220000      -3.58550000
H       -0.63090000      -4.63230000      -1.88240000
