15
Properties=species:S:1:pos:R:3 gdb_84967=T pbc="F F F"
C        0.24330000       1.51290000      -0.07440000
C       -0.04490000       0.02970000       0.07650000
O        0.48700000      -0.71280000      -1.06670000
C        1.69490000      -1.26650000      -0.80600000
O        2.37330000      -1.82790000      -1.61110000
C        1.97140000      -1.03350000       0.68960000
O        3.02860000      -1.08240000       1.25600000
C        0.64950000      -0.62210000       1.29680000
O        0.77570000       0.19740000       2.41840000
H        1.32030000       1.70980000      -0.07390000
H       -0.17780000       1.88170000      -1.01260000
H       -0.20010000       2.06100000       0.75970000
H       -1.11950000      -0.16000000       0.06640000
H        0.10670000      -1.55520000       1.53550000
H        1.67630000       0.07260000       2.75210000
