23
Properties=species:S:1:pos:R:3 gdb_63645=T pbc="F F F"
C        0.00610000       1.57870000      -0.26070000
C       -0.00150000       0.08020000      -0.05940000
O       -1.18980000      -0.53710000      -0.49710000
C        1.26900000      -0.72760000      -0.18940000
C        0.57910000      -0.57980000       1.16050000
C        1.21690000       0.16580000       2.29900000
C        0.33210000       0.63630000       3.49230000
C        1.48960000       0.25510000       4.45320000
C        2.08100000      -0.63030000       3.32360000
H        0.92230000       2.03950000       0.11660000
H       -0.06580000       1.82150000      -1.32860000
H       -0.84860000       2.03840000       0.24590000
H       -1.22740000      -0.45030000      -1.45660000
H        1.20170000      -1.68760000      -0.68900000
H        2.20420000      -0.19640000      -0.34090000
H        0.01060000      -1.45480000       1.46830000
H        1.80050000       1.01260000       1.92130000
H       -0.01950000       1.67130000       3.48990000
H       -0.53280000      -0.02250000       3.62150000
H        2.13240000       1.11260000       4.67350000
H        1.22870000      -0.23120000       5.39610000
H        1.73670000      -1.66670000       3.40350000
H        3.16490000      -0.63570000       3.18360000
