19
Properties=species:S:1:pos:R:3 gdb_62078=T pbc="F F F"
C        0.09970000       1.41360000       0.01250000
C        0.07930000      -0.09370000      -0.07330000
O        1.09120000      -0.75380000      -0.18430000
C       -1.26850000      -0.82270000      -0.01450000
O       -1.06580000      -2.19840000      -0.18320000
C       -2.00490000      -0.53860000       1.31160000
C       -3.32980000      -1.31370000       1.39440000
C       -3.95600000      -1.20740000       2.76410000
O       -5.06590000      -0.79920000       2.98950000
H        1.06780000       1.78740000      -0.32290000
H       -0.70550000       1.85890000      -0.57950000
H       -0.05360000       1.72410000       1.05260000
H       -1.88630000      -0.43180000      -0.84200000
H       -0.10090000      -2.30580000      -0.23680000
H       -1.35040000      -0.83610000       2.14120000
H       -2.19460000       0.53620000       1.41020000
H       -4.04930000      -0.96310000       0.64850000
H       -3.11200000      -2.37170000       1.19910000
H       -3.29150000      -1.54460000       3.59550000
