20
Properties=species:S:1:pos:R:3 gdb_78699=T pbc="F F F"
C        0.03020000       1.52400000      -0.23580000
N        0.02270000       0.07540000      -0.06230000
C       -1.09990000      -0.47860000       0.75370000
C       -0.23880000      -1.70390000       1.19870000
C        0.67470000      -0.43670000       1.18090000
C       -0.50930000      -0.06510000       2.16130000
C       -0.59680000      -1.50070000       2.66570000
C       -1.57960000      -2.18570000       3.55480000
C       -0.09640000      -2.15060000       3.91190000
H        1.01760000       1.83830000      -0.59030000
H       -0.70070000       1.79770000      -1.00410000
H       -0.20350000       2.09640000       0.67810000
H       -2.14210000      -0.47140000       0.42920000
H       -0.07920000      -2.61650000       0.62540000
H        1.74890000      -0.37940000       1.36590000
H       -0.66480000       0.85970000       2.71640000
H       -2.25670000      -1.58000000       4.14930000
H       -1.99980000      -3.13450000       3.23550000
H        0.46500000      -3.07620000       3.82890000
H        0.20830000      -1.52160000       4.74270000
