17
Properties=species:S:1:pos:R:3 gdb_5119=T pbc="F F F"
C        0.09220000       1.45510000       0.00710000
N       -0.02410000       0.01330000      -0.00700000
C       -0.22540000      -0.78650000      -1.11840000
C       -0.20130000      -2.09450000      -0.71240000
C        0.03340000      -2.12270000       0.70010000
C        0.13010000      -3.32280000       1.59290000
C        0.13630000      -0.80260000       1.07930000
O        0.36700000      -0.20540000       2.28250000
H        1.13700000       1.78300000      -0.05030000
H       -0.45130000       1.86490000      -0.84690000
H       -0.34240000       1.85240000       0.92660000
H       -0.36560000      -0.34000000      -2.08930000
H       -0.34080000      -2.95630000      -1.34810000
H        0.57650000      -3.07410000       2.56430000
H       -0.84590000      -3.78200000       1.79740000
H        0.76360000      -4.10030000       1.15190000
H        0.30160000      -0.87870000       2.96630000
