22
Properties=species:S:1:pos:R:3 gdb_101302=T pbc="F F F"
C       -0.04690000       1.00860000       1.93970000
C        0.15460000      -0.43850000       1.47980000
C       -0.08930000      -0.67270000      -0.02420000
C        0.90740000       0.07470000      -0.92140000
C       -0.03340000      -2.16300000      -0.31030000
N       -1.20410000      -2.96940000      -0.00110000
C       -0.78600000      -2.85440000      -1.41660000
C       -1.72780000      -2.12860000      -2.31240000
O       -1.72870000      -2.24360000      -3.51310000
H        0.66890000       1.69200000       1.47300000
H       -1.05450000       1.36320000       1.69520000
H        0.07930000       1.09270000       3.02350000
H        1.17310000      -0.76620000       1.73220000
H       -0.52770000      -1.09130000       2.03690000
H       -1.10300000      -0.32210000      -0.25250000
H        0.85300000       1.15550000      -0.76850000
H        1.93680000      -0.23980000      -0.71080000
H        0.70980000      -0.12170000      -1.97990000
H        0.94330000      -2.60780000      -0.10860000
H       -0.94900000      -3.88270000       0.36340000
H       -0.28520000      -3.69220000      -1.89620000
H       -2.44870000      -1.46870000      -1.78340000
