21
Properties=species:S:1:pos:R:3 gdb_65139=T pbc="F F F"
O        0.17770000       1.44880000       0.00700000
C        0.10090000       0.04560000       0.00110000
C        1.13520000      -0.73580000      -0.77090000
C        1.14650000      -0.74280000       0.75040000
C       -1.31120000      -0.47290000       0.00920000
C       -2.50130000       0.01390000       0.79140000
C       -2.64700000       1.54390000       0.80850000
C       -2.65790000       1.55060000      -0.75380000
C       -2.51240000       0.02050000      -0.75170000
H        1.10480000       1.70420000       0.00150000
H        0.83090000      -1.63550000      -1.29530000
H        1.91380000      -0.17330000      -1.27800000
H        1.93260000      -0.18500000       1.25100000
H        0.85000000      -1.64740000       1.27090000
H       -1.28920000      -1.56230000       0.00440000
H       -3.02020000      -0.65560000       1.46930000
H       -3.61050000       1.85220000       1.22180000
H       -1.85070000       2.10360000       1.29970000
H       -3.62700000       1.86250000      -1.15090000
H       -1.86840000       2.11440000      -1.25130000
H       -3.04100000      -0.64320000      -1.42770000
