10
Properties=species:S:1:pos:R:3 gdb_131074=T pbc="F F F"
O        0.08910000      -0.03130000       0.08120000
C        0.00920000       1.13340000      -0.08540000
O        1.10060000       1.96370000       0.23200000
C        0.91160000       3.27610000       0.19120000
N       -0.18160000       3.91340000       0.40080000
O        0.20040000       5.27350000       0.21570000
C        1.52480000       5.33870000      -0.06660000
O        2.17970000       6.30080000      -0.26210000
O        1.99120000       4.01930000      -0.08850000
H       -0.83340000       1.70990000      -0.48960000
