21
Properties=species:S:1:pos:R:3 gdb_63956=T pbc="F F F"
C       -0.18220000       1.56360000       0.00560000
C        0.00140000       0.05050000      -0.01710000
O       -1.26550000      -0.61000000       0.03220000
C        0.87860000      -0.47610000      -1.21100000
C        1.98890000      -1.29370000      -0.50660000
C        2.88990000      -0.29510000       0.23230000
O        2.04040000       0.22420000       1.27510000
C        0.80320000      -0.49880000       1.18950000
C        1.22790000      -1.88680000       0.70040000
H        0.78000000       2.07180000       0.09700000
H       -0.66780000       1.90840000      -0.91590000
H       -0.81090000       1.85520000       0.85270000
H       -1.80580000      -0.26820000      -0.68780000
H        0.26440000      -1.11370000      -1.85320000
H        1.28790000       0.33360000      -1.82340000
H        2.52800000      -1.99090000      -1.14920000
H        3.77000000      -0.77440000       0.68170000
H        3.23230000       0.52850000      -0.40610000
H        0.28240000      -0.41870000       2.14370000
H        0.38090000      -2.51500000       0.42270000
H        1.87100000      -2.40890000       1.41330000
