13
Properties=species:S:1:pos:R:3 gdb_20497=T pbc="F F F"
C       -0.06200000       1.48470000       0.01070000
C       -0.00460000       0.03250000       0.00280000
C        0.05070000      -1.17280000      -0.00380000
C        0.11130000      -2.57780000      -0.01140000
C        1.15690000      -3.48550000      -0.02250000
N        0.65220000      -4.74550000      -0.02600000
N       -0.65050000      -4.68690000      -0.01770000
N       -0.98640000      -3.38770000      -0.00890000
H        0.94520000       1.91450000       0.00340000
H       -0.59430000       1.86580000      -0.86780000
H       -0.57780000       1.85690000       0.90270000
H        2.21640000      -3.29050000      -0.02800000
H       -1.95750000      -3.11760000      -0.00160000
