23
Properties=species:S:1:pos:R:3 gdb_100913=T pbc="F F F"
C        0.00670000       1.63210000       0.02270000
C       -0.05020000       0.10230000      -0.06220000
C        0.73560000      -0.50040000      -1.24540000
C        2.22110000      -0.10590000      -1.20400000
C        0.59230000      -2.04860000      -1.31520000
C       -0.85760000      -2.55510000      -1.23840000
O       -0.95600000      -3.92770000      -1.59200000
C        1.17690000      -2.55000000      -2.62660000
O        2.20370000      -3.16650000      -2.74190000
H        1.01500000       1.99790000       0.23450000
H       -0.32580000       2.09260000      -0.91470000
H       -0.64830000       1.99650000       0.82010000
H        0.32750000      -0.33160000       0.87410000
H       -1.10160000      -0.19510000      -0.13490000
H        0.29810000      -0.09260000      -2.17050000
H        2.78990000      -0.58430000      -2.00540000
H        2.34950000       0.97440000      -1.30530000
H        2.67500000      -0.41130000      -0.25380000
H        1.18200000      -2.49960000      -0.50550000
H       -1.28170000      -2.36930000      -0.24330000
H       -1.48200000      -2.02130000      -1.96480000
H       -0.40460000      -4.43400000      -0.98580000
H        0.56890000      -2.27220000      -3.52020000
