16
Properties=species:S:1:pos:R:3 gdb_48009=T pbc="F F F"
O       -0.04650000      -0.10200000      -0.19250000
C        0.07320000       1.00530000       0.28040000
C        1.26150000       1.81160000       0.18150000
C        2.24510000       2.51300000       0.12220000
C        3.42700000       3.34030000       0.00980000
C        4.15350000       3.47980000      -1.37330000
N        4.06910000       4.97810000      -1.33250000
C        2.62840000       5.28980000      -1.31640000
C        3.26090000       4.86690000      -0.05460000
H       -0.75490000       1.48690000       0.83970000
H        4.14570000       3.05280000       0.78240000
H        5.19250000       3.15020000      -1.34330000
H        3.64850000       3.02930000      -2.23200000
H        2.42330000       6.34820000      -1.43970000
H        1.93510000       4.62600000      -1.82910000
H        3.41320000       5.53490000       0.78640000
