18
Properties=species:S:1:pos:R:3 gdb_32104=T pbc="F F F"
C        0.12770000       1.54820000       0.14350000
C       -0.03560000       0.03090000      -0.04080000
C        0.72880000      -0.48090000      -1.23560000
N        0.30880000      -0.05150000      -2.44400000
C        0.99710000      -0.49990000      -3.48730000
N        2.04590000      -1.32140000      -3.48870000
C        2.46080000      -1.74110000      -2.28480000
N        3.56350000      -2.54980000      -2.26540000
C        1.81140000      -1.33360000      -1.10660000
H        1.17170000       1.81020000       0.34400000
H       -0.18590000       2.07220000      -0.76260000
H       -0.47910000       1.90460000       0.98110000
H        0.28760000      -0.49950000       0.86120000
H       -1.09660000      -0.19840000      -0.19360000
H        0.66300000      -0.16140000      -4.46660000
H        3.82660000      -2.94670000      -3.15360000
H        3.73590000      -3.11560000      -1.45170000
H        2.14840000      -1.67380000      -0.13320000
