18
Properties=species:S:1:pos:R:3 gdb_88938=T pbc="F F F"
C       -0.49700000       1.42910000       0.25960000
N       -0.11850000       0.03390000       0.10600000
C        1.25120000      -0.27720000      -0.27570000
C        0.74700000      -0.60900000       1.08990000
C        1.30980000       0.09960000       2.30300000
C        0.34330000       0.17460000       3.46480000
O       -0.81210000      -0.17980000       3.43580000
C        0.88420000       0.75290000       4.78190000
O        2.01660000       1.13030000       4.92750000
H        0.32180000       2.09990000       0.56810000
H       -0.87530000       1.79520000      -0.70000000
H       -1.30310000       1.50120000       0.99570000
H        1.37990000      -1.05050000      -1.02870000
H        1.96180000       0.54730000      -0.34890000
H        0.45400000      -1.63720000       1.29480000
H        2.21780000      -0.40660000       2.65750000
H        1.64410000       1.12020000       2.08270000
H        0.11590000       0.78490000       5.58320000
