18
Properties=species:S:1:pos:R:3 gdb_105662=T pbc="F F F"
O        0.02090000       1.25910000      -0.49490000
C       -0.03090000      -0.06400000      -0.02800000
C       -1.49650000      -0.51400000       0.14520000
N       -2.20050000      -0.27460000      -1.17150000
C       -2.24830000      -1.74130000      -1.45260000
C       -1.75050000      -2.06380000      -0.02280000
O       -0.71530000      -2.97900000       0.17980000
C       -2.12760000       0.11090000       1.29090000
C       -2.68060000       0.60170000       2.23970000
H       -0.62170000       1.28580000      -1.22050000
H        0.47330000      -0.75110000      -0.73100000
H        0.50180000      -0.11210000       0.92500000
H       -3.12790000       0.10390000      -1.01380000
H       -3.23080000      -2.13400000      -1.72750000
H       -1.53460000      -2.02290000      -2.23670000
H       -2.56370000      -2.38000000       0.63320000
H       -0.01440000      -2.80400000      -0.45700000
H       -3.15360000       1.04630000       3.08030000
