18
Properties=species:S:1:pos:R:3 gdb_71791=T pbc="F F F"
O       -0.03780000       1.42170000      -0.00070000
C       -0.00270000       0.03020000      -0.02230000
C        0.45430000      -0.73770000      -1.28550000
C       -0.53660000      -1.85410000      -0.86850000
C       -0.12220000      -2.54710000       0.47500000
C        1.19670000      -2.02190000       1.06800000
C        0.41060000      -0.72140000       1.29980000
N       -0.90380000      -1.51470000       1.30030000
C       -1.30470000      -0.82050000       0.01500000
H        0.86830000       1.75090000       0.01450000
H        0.08420000      -0.21760000      -2.17440000
H        1.51250000      -0.98230000      -1.42000000
H       -0.99250000      -2.47680000      -1.63620000
H       -0.39080000      -3.59950000       0.58470000
H        1.40860000      -2.51580000       2.02000000
H        2.10300000      -2.01000000       0.45720000
H        0.62320000      -0.07390000       2.15370000
H       -2.31720000      -0.44780000      -0.13810000
