21
Properties=species:S:1:pos:R:3 gdb_103313=T pbc="F F F"
C       -1.45620000      -0.62980000       0.16020000
C       -0.06030000      -0.01560000      -0.01170000
C        0.70670000      -0.53120000      -1.24310000
C        0.16540000       0.13100000      -2.51340000
C        2.28730000      -0.62650000      -1.12490000
C        2.08260000      -1.88210000      -0.20680000
C        1.01690000      -2.08530000      -1.33790000
C        2.17680000      -1.66280000      -2.25370000
O        2.72460000      -1.99470000      -3.25930000
H       -2.08720000      -0.47200000      -0.71990000
H       -1.39360000      -1.70890000       0.33440000
H       -1.97110000      -0.18420000       1.01690000
H       -0.15410000       1.07240000      -0.11750000
H        0.50560000      -0.16780000       0.91060000
H        0.31150000       1.21600000      -2.47000000
H        0.65700000      -0.23560000      -3.41850000
H       -0.90820000      -0.04970000      -2.62640000
H        2.99770000       0.18870000      -0.99740000
H        2.90270000      -2.60120000      -0.16920000
H        1.68790000      -1.69080000       0.78850000
H        0.31100000      -2.90600000      -1.45180000
