15
Properties=species:S:1:pos:R:3 gdb_27446=T pbc="F F F"
N       -0.00170000       1.34870000       0.18790000
C       -0.03210000      -0.00530000      -0.04780000
N       -1.18890000      -0.58100000      -0.01720000
C       -1.47280000      -1.90350000      -0.30220000
O       -2.47690000      -2.22410000      -0.90880000
C       -0.59620000      -2.97130000       0.24910000
C        0.75070000      -2.97450000       0.22220000
C        1.60200000      -1.89120000      -0.20720000
C        1.27090000      -0.59130000      -0.35740000
H        0.84770000       1.76700000       0.52900000
H       -0.86560000       1.74520000       0.52530000
H       -1.12980000      -3.86460000       0.56110000
H        1.26540000      -3.88700000       0.51270000
H        2.64030000      -2.15630000      -0.39130000
H        2.04830000       0.10910000      -0.65070000
