16
Properties=species:S:1:pos:R:3 gdb_56537=T pbc="F F F"
C        0.74250000       1.10890000       1.11480000
C        0.10460000       0.04620000       0.23410000
O       -0.21000000      -1.07430000       1.05280000
C       -1.25050000       0.51150000      -0.31800000
O       -1.62550000       0.33600000      -1.45280000
C        1.03200000      -0.44250000      -0.91050000
O        0.44080000      -1.53210000      -1.59090000
C        1.41770000       0.65000000      -1.82180000
N        1.72530000       1.51670000      -2.52110000
H        1.64910000       0.70890000       1.57730000
H        0.99930000       2.00160000       0.53820000
H        0.05250000       1.39160000       1.91470000
H       -0.35480000      -1.81580000       0.44540000
H       -1.91600000       0.96220000       0.44720000
H        1.94440000      -0.83070000      -0.44480000
H       -0.33590000      -1.17030000      -2.04660000
