23
Properties=species:S:1:pos:R:3 gdb_83086=T pbc="F F F"
C       -0.17610000       1.62190000       0.05970000
C        0.04530000       0.11850000       0.01160000
C        0.78860000      -0.57140000      -1.17750000
C        2.06080000       0.20870000      -1.56300000
C        2.86710000       0.54020000      -0.32540000
C        2.40680000       0.16610000       0.86990000
C        1.10190000      -0.59820000       0.92450000
C        1.16740000      -1.71160000      -0.17960000
C        0.16810000      -2.85690000      -0.05970000
H        0.75790000       2.18280000      -0.02360000
H       -0.83780000       1.93980000      -0.75460000
H       -0.65510000       1.91300000       1.00180000
H       -0.91970000      -0.37790000       0.14710000
H        0.19940000      -0.83780000      -2.06080000
H        2.66480000      -0.38620000      -2.26300000
H        1.80270000       1.13010000      -2.10500000
H        3.79890000       1.08690000      -0.44040000
H        2.94060000       0.39110000       1.78830000
H        0.80800000      -0.88150000       1.93790000
H        2.17160000      -2.12380000      -0.32270000
H       -0.85990000      -2.51220000       0.08770000
H        0.18000000      -3.47340000      -0.96600000
H        0.42140000      -3.50720000       0.78500000
