14
Properties=species:S:1:pos:R:3 gdb_133739=T pbc="F F F"
C        0.03960000       1.39770000       0.10900000
O       -0.02430000      -0.01870000       0.01840000
C        0.64420000      -0.57370000      -1.09100000
C        1.25300000      -1.84820000      -0.71930000
C        1.76040000      -2.89280000      -0.41840000
C       -0.34530000      -0.76980000      -2.25990000
F       -0.87890000       0.41000000      -2.61670000
F        0.28330000      -1.27210000      -3.32890000
F       -1.34180000      -1.58800000      -1.93280000
H        1.08160000       1.74710000       0.13810000
H       -0.48080000       1.88850000      -0.72060000
H       -0.44900000       1.66510000       1.04790000
H        1.42340000       0.10660000      -1.46780000
H        2.20610000      -3.81910000      -0.15020000
