16
Properties=species:S:1:pos:R:3 gdb_46607=T pbc="F F F"
N       -0.05240000       1.30660000       0.02490000
C       -0.06320000       0.04190000       0.00920000
O        1.06470000      -0.76330000       0.02550000
C        0.69380000      -2.15370000      -0.00020000
C       -0.79860000      -2.11830000      -0.03440000
C       -1.21280000      -0.85490000      -0.02850000
C       -2.70270000      -0.78820000      -0.06230000
O       -3.10200000      -2.17110000      -0.08870000
C       -1.96810000      -3.04620000      -0.07300000
H        0.90590000       1.65860000       0.05140000
H        1.14360000      -2.62590000      -0.88320000
H        1.10250000      -2.64770000       0.89090000
H       -3.13090000      -0.29490000       0.82080000
H       -3.08960000      -0.27300000      -0.95190000
H       -1.97810000      -3.68790000      -0.96760000
H       -2.01940000      -3.70970000       0.80410000
