16
Properties=species:S:1:pos:R:3 gdb_31409=T pbc="F F F"
C       -0.06710000       1.48300000       0.05940000
N        0.11900000       0.04480000      -0.00310000
C        0.66960000      -0.70790000       0.99030000
C        0.60950000      -2.07430000       1.02140000
C        1.24830000      -2.81360000       2.06440000
N        1.27270000      -4.07380000       2.20390000
O        1.91170000      -1.99590000       3.03080000
C        1.89290000      -0.67040000       2.89830000
N        1.33790000       0.01700000       1.97720000
H        0.78780000       1.93700000       0.55860000
H       -0.13460000       1.87620000      -0.95830000
H       -0.97640000       1.77090000       0.60570000
H       -0.45320000      -0.45820000      -0.66170000
H        0.08790000      -2.64710000       0.26580000
H        1.79440000      -4.34020000       3.03720000
H        2.43340000      -0.18260000       3.70570000
