19
Properties=species:S:1:pos:R:3 gdb_74758=T pbc="F F F"
C        0.06360000       1.42350000       0.06860000
C        0.00900000      -0.06340000       0.02080000
C       -0.00050000      -0.92150000      -1.00760000
C       -0.00430000      -2.30490000      -0.34390000
C       -1.05150000      -2.06060000       0.79890000
C        0.00510000      -0.99260000       1.25120000
C        1.03750000      -2.05120000       0.77940000
C        1.90830000      -2.95370000       1.52290000
O        2.42100000      -1.90930000       0.65950000
H        0.97000000       1.77020000       0.58150000
H        0.05980000       1.85320000      -0.93720000
H       -0.78730000       1.84220000       0.62130000
H        0.03200000      -0.72010000      -2.06910000
H       -0.00320000      -3.19990000      -0.96410000
H       -2.02360000      -1.67560000       0.48620000
H       -1.15550000      -2.89970000       1.49400000
H        0.01630000      -0.55330000       2.24840000
H        2.08290000      -2.79840000       2.58670000
H        2.07930000      -3.96890000       1.16730000
