21
Properties=species:S:1:pos:R:3 gdb_106583=T pbc="F F F"
C       -0.13300000       1.35920000       0.00960000
O        0.17480000      -0.01880000       0.06250000
C        0.72640000      -0.52610000      -1.10480000
C        0.00100000      -0.51710000      -2.50350000
C        1.06060000      -1.64120000      -2.76930000
C        2.35750000      -0.83080000      -2.63180000
C        2.14480000      -0.09260000      -1.54080000
C        0.80490000      -2.08070000      -1.27490000
C        1.79250000      -2.92540000      -0.49160000
H        0.75610000       1.97340000      -0.19360000
H       -0.88540000       1.57710000      -0.76210000
H       -0.53690000       1.63570000       0.98620000
H       -1.02880000      -0.88440000      -2.45730000
H        0.07860000       0.38590000      -3.11200000
H        0.96050000      -2.33940000      -3.59810000
H        3.22380000      -0.88740000      -3.27590000
H        2.78260000       0.61540000      -1.03130000
H       -0.20290000      -2.50140000      -1.18030000
H        2.81140000      -2.53870000      -0.57310000
H        1.51860000      -2.94610000       0.56850000
H        1.78880000      -3.95940000      -0.85370000
