17
Properties=species:S:1:pos:R:3 gdb_109080=T pbc="F F F"
O       -0.01360000       1.40590000      -0.09950000
C       -0.02850000      -0.00330000       0.02250000
C       -1.43560000      -0.47610000       0.11750000
C       -2.58130000       0.20930000       0.14060000
C       -3.66190000      -0.86150000       0.06000000
O       -3.67230000      -1.35420000      -1.30530000
C       -2.47210000      -2.12750000      -1.39090000
C       -1.86850000      -1.93900000       0.03970000
O       -3.09640000      -1.93290000       0.78640000
H        0.89990000       1.70200000      -0.05160000
H        0.46330000      -0.48990000      -0.83980000
H        0.52780000      -0.33700000       0.91680000
H       -2.72700000       1.27680000       0.07560000
H       -4.68030000      -0.64030000       0.37070000
H       -2.72290000      -3.17740000      -1.57560000
H       -1.82220000      -1.75390000      -2.18920000
H       -1.18800000      -2.71350000       0.39000000
