19
Properties=species:S:1:pos:R:3 gdb_54269=T pbc="F F F"
C       -0.04230000       1.67690000      -0.25470000
C       -0.02000000       0.17430000      -0.04040000
O        0.80840000      -0.42150000      -1.03760000
C        1.65710000      -1.36530000      -0.40280000
C        1.84150000      -0.75050000       0.98020000
O        0.56580000      -0.16330000       1.22500000
C       -1.42760000      -0.45480000      -0.11470000
N       -1.55850000      -1.60760000       0.63260000
N       -2.28170000       0.07130000      -0.90200000
H        0.98130000       2.05810000      -0.22560000
H       -0.49630000       1.90190000      -1.21950000
H       -0.63260000       2.15850000       0.52810000
H        1.18000000      -2.35350000      -0.34210000
H        2.58060000      -1.44330000      -0.98170000
H        2.04920000      -1.47540000       1.77160000
H        2.62860000       0.01580000       0.97810000
H       -0.97950000      -1.63930000       1.45870000
H       -2.49650000      -1.95960000       0.75240000
H       -3.15690000      -0.45710000      -0.91140000
