17
Properties=species:S:1:pos:R:3 gdb_128242=T pbc="F F F"
C        0.08680000       1.26910000      -0.21600000
N        0.02670000      -0.15590000       0.04920000
C       -1.21620000      -0.76670000       0.02180000
C       -2.47960000      -0.25490000       0.03340000
O       -3.38770000      -1.26460000       0.04650000
N       -2.72130000      -2.47080000       0.02340000
C       -1.44240000      -2.18180000       0.02200000
C       -0.38570000      -3.24150000      -0.00120000
O        0.58060000      -2.99250000      -1.02500000
H        1.12970000       1.59320000      -0.21080000
H       -0.36660000       1.55530000      -1.17940000
H       -0.43670000       1.81590000       0.57660000
H        0.72160000      -0.70820000      -0.43620000
H       -2.88530000       0.74260000       0.04250000
H        0.18280000      -3.22960000       0.93460000
H       -0.85250000      -4.22860000      -0.10280000
H        0.12530000      -3.05410000      -1.87190000
