19
Properties=species:S:1:pos:R:3 gdb_38573=T pbc="F F F"
C        0.00600000       1.57870000       0.10900000
C        1.49010000       1.91250000       0.00420000
C        2.38070000       1.06450000       0.87890000
C        1.71680000       0.12730000       1.88450000
C        0.71910000      -0.75320000       1.12980000
O        1.44580000      -1.51270000       0.12530000
C        1.22370000      -0.41380000      -0.80010000
C        2.22290000       0.71840000      -0.59120000
C       -0.00810000       0.05490000       0.01470000
H       -0.45030000       1.94950000       1.03550000
H       -0.55140000       2.02120000      -0.72470000
H        1.79240000       2.92720000      -0.23080000
H        3.32930000       1.49910000       1.17650000
H        2.46040000      -0.51860000       2.36320000
H        1.21350000       0.69320000       2.67980000
H        0.12980000      -1.40130000       1.78480000
H        1.13150000      -0.75620000      -1.83320000
H        3.06130000       0.83960000      -1.26600000
H       -0.95770000      -0.39210000      -0.27890000
