21
Properties=species:S:1:pos:R:3 gdb_57919=T pbc="F F F"
C       -0.07750000       1.54410000      -0.17340000
N        0.10430000       0.13100000       0.10090000
C        0.56920000      -0.21690000       1.43020000
C        0.10890000      -0.74660000      -0.96280000
O        0.08210000      -0.38270000      -2.12970000
N        0.15080000      -2.09690000      -0.62630000
C       -0.75970000      -2.78900000       0.32150000
C       -0.80500000      -3.99620000      -0.64810000
C       -0.06310000      -3.10830000      -1.68090000
H        0.86500000       2.09910000      -0.06410000
H       -0.43060000       1.65610000      -1.19710000
H       -0.80900000       1.97540000       0.52080000
H       -0.24810000      -0.27830000       2.16200000
H        1.09570000      -1.17100000       1.40610000
H        1.27410000       0.54660000       1.78230000
H       -0.33350000      -2.97550000       1.31180000
H       -1.72020000      -2.27400000       0.44510000
H       -0.22270000      -4.85120000      -0.30130000
H       -1.79910000      -4.33640000      -0.93860000
H       -0.68770000      -2.72720000      -2.49400000
H        0.86150000      -3.51050000      -2.10440000
