10
Properties=species:S:1:pos:R:3 gdb_133474=T pbc="F F F"
F       -0.28730000       0.13300000      -0.21240000
C       -0.01360000       1.41770000       0.02770000
F        1.29970000       1.57050000       0.11290000
F       -0.46930000       2.13630000      -1.00130000
C       -0.67690000       1.86290000       1.31130000
N       -0.11200000       2.33250000       2.37550000
C       -1.20730000       2.55010000       3.18010000
N       -2.35740000       2.23750000       2.64930000
O       -2.00450000       1.76980000       1.37940000
H       -1.13950000       2.94990000       4.18090000
