22
Properties=species:S:1:pos:R:3 gdb_113385=T pbc="F F F"
C        0.49970000       1.44130000       0.16920000
C       -0.22450000       0.12730000      -0.14710000
C        0.39990000      -0.58410000      -1.32790000
N        1.60920000      -1.38950000      -1.07900000
C        0.38390000      -2.05240000      -1.58250000
C       -0.17620000      -3.06210000      -0.59850000
O        0.70200000      -4.18800000      -0.49940000
C        0.40670000      -2.54250000      -3.02180000
O        1.33800000      -3.59220000      -3.21940000
H        1.55110000       1.25240000       0.40690000
H        0.46620000       2.12910000      -0.68320000
H        0.04300000       1.94830000       1.02420000
H       -0.19790000      -0.52110000       0.73340000
H       -1.28130000       0.32540000      -0.36800000
H        0.41000000       0.02370000      -2.23450000
H        2.28070000      -1.29500000      -1.83740000
H       -0.33320000      -2.61400000       0.38860000
H       -1.13490000      -3.45800000      -0.94890000
H        1.55000000      -3.82460000      -0.21150000
H       -0.61160000      -2.84700000      -3.31840000
H        0.70840000      -1.72770000      -3.69090000
H        1.20150000      -4.21540000      -2.49100000
