18
Properties=species:S:1:pos:R:3 gdb_92404=T pbc="F F F"
O        0.53060000       0.88920000      -0.83050000
C        0.15010000      -0.19510000      -0.03840000
C        0.20330000      -0.09280000       1.51320000
C       -1.21100000      -0.72590000       1.61890000
C       -2.35400000       0.29650000       1.80100000
C       -2.36350000       0.56790000       0.26870000
C       -1.36120000      -0.60930000       0.04160000
C       -1.80300000      -1.68990000      -0.80360000
N       -2.14730000      -2.56960000      -1.47270000
H        0.15270000       1.69450000      -0.46170000
H        0.73260000      -1.04670000      -0.39850000
H        1.01700000      -0.65010000       1.98020000
H        0.24350000       0.93830000       1.88140000
H       -1.28050000      -1.68320000       2.13230000
H       -3.28330000      -0.16880000       2.13780000
H       -2.13600000       1.14560000       2.45460000
H       -3.32790000       0.42800000      -0.21960000
H       -1.97010000       1.53830000      -0.04750000
