18
Properties=species:S:1:pos:R:3 gdb_72709=T pbc="F F F"
C       -0.02030000       1.51680000      -0.08160000
C       -0.05630000      -0.00490000       0.00510000
N       -1.27310000      -0.49430000       0.74060000
C       -0.41770000      -0.45830000       2.01690000
C        0.73860000      -0.76510000       1.02490000
O        1.98830000      -0.29330000       0.35010000
C        1.16190000      -0.62940000      -0.87490000
C        0.99370000      -2.12290000      -0.74290000
C        0.68670000      -2.22420000       0.55010000
H        0.96240000       1.88430000      -0.37960000
H       -0.74960000       1.83600000      -0.83800000
H       -0.29460000       2.00480000       0.85940000
H       -2.05180000       0.16230000       0.73990000
H       -0.38520000       0.52270000       2.49840000
H       -0.66930000      -1.23510000       2.74370000
H        1.55520000      -0.16660000      -1.78080000
H        1.07800000      -2.86200000      -1.52480000
H        0.43850000      -3.07660000       1.16530000
