15
Properties=species:S:1:pos:R:3 gdb_87114=T pbc="F F F"
O       -0.24660000       1.33060000      -0.04420000
C       -0.05050000      -0.04900000       0.04600000
C       -0.45580000      -0.79520000       1.27260000
C       -1.36560000      -0.83790000       0.04660000
O       -2.53490000      -0.08550000       0.06140000
C       -1.39040000      -2.09410000      -0.74940000
O       -0.46420000      -2.87370000      -0.74600000
C       -2.63870000      -2.37150000      -1.62590000
O       -2.76890000      -3.42220000      -2.19280000
H        0.11470000       1.75210000       0.74230000
H        0.75900000      -0.44370000      -0.56250000
H        0.08730000      -1.70320000       1.50820000
H       -0.85490000      -0.22840000       2.10720000
H       -2.26720000       0.83010000      -0.11310000
H       -3.38010000      -1.55530000      -1.69470000
