19
Properties=species:S:1:pos:R:3 gdb_74473=T pbc="F F F"
C       -0.04580000       1.50680000       0.08210000
C       -0.01530000       0.01470000      -0.00330000
C        0.04670000      -0.75420000      -1.10030000
C        0.04760000      -2.20860000      -0.77680000
C       -0.74290000      -3.22170000      -1.58330000
C        0.75760000      -3.24290000      -1.62430000
C        0.05750000      -2.26110000       0.72930000
O        1.20200000      -1.65670000       1.34060000
C       -0.00790000      -0.87100000       1.20920000
H        0.83130000       1.89320000       0.61640000
H       -0.06760000       1.96400000      -0.91080000
H       -0.92750000       1.85700000       0.63410000
H        0.12570000      -0.38610000      -2.11840000
H       -1.25350000      -4.00560000      -1.03230000
H       -1.28250000      -2.86300000      -2.45310000
H        1.25270000      -2.89410000      -2.52420000
H        1.28140000      -4.04000000      -1.10830000
H       -0.36560000      -3.11090000       1.26030000
H       -0.46120000      -0.56760000       2.14930000
