20
Properties=species:S:1:pos:R:3 gdb_109872=T pbc="F F F"
C       -0.45930000       1.45820000       0.24900000
N       -0.05970000       0.07040000       0.09130000
C        0.33950000      -0.40450000      -1.22920000
C        1.67380000       0.16160000      -1.68840000
C        1.65070000      -0.93860000      -0.67060000
O        2.34910000      -2.10710000      -0.89920000
C        1.21490000      -0.43030000       0.70710000
C        2.13720000       0.52030000       1.44760000
O        1.53550000       0.83110000       2.69910000
H        0.22250000       2.19030000      -0.21850000
H       -1.44730000       1.59630000      -0.20370000
H       -0.52880000       1.68960000       1.31450000
H       -0.37990000      -0.84110000      -1.91380000
H        1.98540000      -0.18310000      -2.66980000
H        1.98030000       1.17590000      -1.44900000
H        1.86610000      -2.83200000      -0.48580000
H        0.98220000      -1.25960000       1.39080000
H        3.10550000       0.01170000       1.58290000
H        2.32130000       1.42960000       0.85910000
H        2.09270000       1.47170000       3.15100000
