18
Properties=species:S:1:pos:R:3 gdb_11612=T pbc="F F F"
C        0.00420000       1.63200000       0.28420000
C       -0.03820000       0.12440000      -0.03530000
C        0.73720000      -0.69550000       1.01580000
C       -1.41680000      -0.35070000      -0.15180000
C       -2.55260000      -0.74760000      -0.22690000
C       -3.91830000      -1.18660000      -0.31910000
C       -4.28210000      -2.49580000      -0.89730000
O       -4.32350000      -2.29240000       0.50850000
H        1.04110000       1.98040000       0.32440000
H       -0.52590000       2.21150000      -0.47620000
H       -0.46420000       1.83350000       1.25240000
H        0.45270000      -0.02710000      -1.00700000
H        1.77800000      -0.35980000       1.06230000
H        0.29030000      -0.57140000       2.00680000
H        0.72670000      -1.76070000       0.77090000
H       -4.66250000      -0.39250000      -0.37420000
H       -5.24780000      -2.60960000      -1.38900000
H       -3.48920000      -3.14970000      -1.25520000
