17
Properties=species:S:1:pos:R:3 gdb_15616=T pbc="F F F"
C       -0.25560000       1.33920000       0.06010000
N        0.01170000      -0.08990000       0.05280000
C        0.59930000      -0.63390000       1.02390000
O        1.04400000      -0.03280000       2.15970000
C        1.48210000      -1.04390000       3.09830000
C        0.87150000      -2.36130000       2.60380000
C        0.85050000      -2.12940000       1.08840000
O       -0.11700000      -2.85900000       0.38810000
H        0.42070000       1.84260000      -0.64110000
H       -1.27510000       1.51380000      -0.29780000
H       -0.13750000       1.80320000       1.04590000
H        2.57820000      -1.06900000       3.09330000
H        1.14380000      -0.74100000       4.09120000
H        1.44750000      -3.23560000       2.91130000
H       -0.15840000      -2.47400000       2.95600000
H        1.85820000      -2.32420000       0.67920000
H       -0.49720000      -2.22680000      -0.24220000
