17
Properties=species:S:1:pos:R:3 gdb_52501=T pbc="F F F"
C       -0.03000000       1.50800000      -0.02680000
C        0.00310000       0.05670000      -0.01580000
C        0.03110000      -1.15330000      -0.00600000
C        0.06150000      -2.51290000       0.00550000
C        0.09230000      -3.72320000       0.01520000
C        0.10240000      -5.17670000       0.03120000
C       -1.31360000      -5.78270000       0.18850000
C       -1.28980000      -7.29160000       0.08130000
O       -1.79470000      -8.04660000       0.86970000
H        0.98220000       1.92730000      -0.00490000
H       -0.52780000       1.88660000      -0.92670000
H       -0.57100000       1.89870000       0.84250000
H        0.55710000      -5.55250000      -0.89600000
H        0.74230000      -5.53260000       0.84930000
H       -1.76710000      -5.49600000       1.13990000
H       -1.94930000      -5.40060000      -0.62150000
H       -0.75400000      -7.67740000      -0.81920000
