20
Properties=species:S:1:pos:R:3 gdb_126536=T pbc="F F F"
C       -0.04730000       1.62560000       0.00330000
C       -0.02460000       0.09550000      -0.00730000
C        0.75460000      -0.48600000      -1.20380000
C        0.77320000      -1.98380000      -1.25330000
C        1.76270000      -2.85320000      -0.83940000
N        1.32620000      -4.10730000      -1.09370000
N        0.08840000      -4.13190000      -1.64840000
C       -0.24270000      -2.84860000      -1.75030000
N       -1.43620000      -2.46060000      -2.36770000
H        0.96780000       2.03530000       0.05490000
H       -0.51510000       2.02200000      -0.90500000
H       -0.60580000       2.01190000       0.86170000
H        0.42060000      -0.28000000       0.92210000
H       -1.05380000      -0.28820000      -0.01880000
H        0.31630000      -0.09950000      -2.13400000
H        1.78290000      -0.10510000      -1.17240000
H        2.73190000      -2.66560000      -0.40260000
H        1.80260000      -4.97590000      -0.93070000
H       -2.04660000      -3.25620000      -2.50850000
H       -1.92700000      -1.73380000      -1.86340000
