19
Properties=species:S:1:pos:R:3 gdb_17826=T pbc="F F F"
C       -0.52210000       1.25030000       0.10720000
N        0.05340000      -0.08600000       0.07090000
C        1.37120000      -0.24380000      -0.52830000
C        1.17980000      -0.43030000       0.94170000
C        1.79540000       0.51870000       1.93540000
C        1.25750000       0.49870000       3.38800000
O        2.56690000       0.21580000       3.91980000
C        3.12120000       0.06890000       2.59800000
H        0.21060000       2.06860000       0.18720000
H       -1.09280000       1.40610000      -0.81380000
H       -1.21660000       1.32560000       0.95030000
H        1.50290000      -1.09680000      -1.18920000
H        1.89790000       0.65800000      -0.84290000
H        1.11640000      -1.45390000       1.31410000
H        1.86430000       1.52960000       1.53130000
H        0.84950000       1.43970000       3.77520000
H        0.54510000      -0.31140000       3.59720000
H        3.40590000      -0.97090000       2.38470000
H        3.99280000       0.71450000       2.43990000
