23
Properties=species:S:1:pos:R:3 gdb_120606=T pbc="F F F"
C       -0.14610000       1.42130000       0.14950000
C       -0.16520000      -0.08500000      -0.12160000
C        0.91610000      -0.52770000      -1.11920000
C        0.88910000      -2.02120000      -1.36450000
C        0.03330000      -2.64080000      -2.41700000
C        1.55200000      -2.66940000      -2.58910000
C        2.22120000      -1.84810000      -3.67330000
C        2.18610000      -3.98710000      -2.30900000
O        1.77790000      -4.79720000      -1.50930000
H        0.81790000       1.73800000       0.56300000
H       -0.31320000       1.99250000      -0.77070000
H       -0.92420000       1.70720000       0.86380000
H       -0.03030000      -0.63090000       0.82090000
H       -1.14930000      -0.38180000      -0.50540000
H        0.77710000       0.01770000      -2.06020000
H        1.90250000      -0.23280000      -0.73580000
H        1.00500000      -2.62750000      -0.46900000
H       -0.44400000      -3.59020000      -2.20180000
H       -0.50940000      -1.98420000      -3.09050000
H        1.67540000      -0.92550000      -3.88010000
H        3.24500000      -1.57140000      -3.39630000
H        2.27280000      -2.41190000      -4.61170000
H        3.10490000      -4.19350000      -2.90510000
