15
Properties=species:S:1:pos:R:3 gdb_27800=T pbc="F F F"
C       -0.02000000       1.47700000       0.02520000
C        0.00090000      -0.02170000      -0.01850000
N       -0.01950000      -0.61330000      -1.17770000
C       -0.00010000      -1.99900000      -1.22170000
N       -0.01480000      -2.74440000      -2.25330000
N        0.04100000      -2.64380000       0.03930000
C        0.05900000      -1.93190000       1.17310000
O        0.09780000      -2.65750000       2.29010000
N        0.04100000      -0.63250000       1.22020000
H        0.86810000       1.84470000       0.55000000
H       -0.05360000       1.88790000      -0.98300000
H       -0.88810000       1.81900000       0.59840000
H       -0.04420000      -2.15080000      -3.08070000
H        0.05630000      -3.65380000       0.05230000
H        0.10670000      -2.02250000       3.02150000
