17
Properties=species:S:1:pos:R:3 gdb_9046=T pbc="F F F"
C       -0.07790000       1.57610000       0.10360000
C        0.02470000       0.03920000       0.02170000
C        0.72650000      -0.45540000      -1.26630000
C       -0.04660000      -0.09570000      -2.55140000
C        0.58850000      -0.64620000      -3.74660000
N        1.10320000      -1.08660000      -4.68280000
C        0.72150000      -0.49220000       1.19210000
C        1.31650000      -0.92010000       2.14480000
H        0.91610000       2.03120000       0.05490000
H       -0.68520000       1.97880000      -0.71200000
H       -0.54100000       1.87670000       1.04630000
H       -0.99630000      -0.37030000       0.02380000
H        1.73560000      -0.03350000      -1.31520000
H        0.84160000      -1.54150000      -1.21280000
H       -1.07300000      -0.47880000      -2.49730000
H       -0.12090000       0.98960000      -2.67550000
H        1.83190000      -1.30350000       2.99050000
