16
Properties=species:S:1:pos:R:3 gdb_19048=T pbc="F F F"
O        0.02260000       1.44400000       0.28140000
C        0.04760000       0.04710000       0.03650000
C        0.61490000      -0.68150000       1.27410000
C       -0.22110000      -1.67610000       1.62230000
C       -1.31960000      -1.34820000       2.63790000
C       -2.13240000      -1.05240000       1.31920000
C       -1.36480000      -0.54350000       0.03470000
C       -1.24870000      -1.95140000       0.50890000
H        0.89220000       1.80140000       0.07500000
H        0.53030000      -0.15900000      -0.93240000
H        1.14540000      -0.07540000       2.00440000
H       -1.79190000      -2.19280000       3.15320000
H       -1.11440000      -0.53790000       3.34270000
H       -3.21900000      -1.01520000       1.28900000
H       -2.03950000      -0.28990000      -0.78100000
H       -1.45800000      -2.87480000      -0.01400000
