15
Properties=species:S:1:pos:R:3 gdb_32282=T pbc="F F F"
O        0.43070000       0.80370000       0.97340000
C       -0.00720000       0.29320000      -0.25530000
C       -1.39150000      -0.30540000      -0.16080000
N       -1.99530000      -0.27690000       1.01520000
C       -3.22600000      -0.80520000       1.11500000
C       -3.85050000      -1.36630000       0.01620000
N       -3.25700000      -1.40660000      -1.18760000
C       -2.04920000      -0.88390000      -1.26830000
O       -1.40950000      -0.89850000      -2.45250000
H       -0.29210000       0.63840000       1.59860000
H       -0.01660000       1.08200000      -1.02500000
H        0.68590000      -0.47910000      -0.62660000
H       -3.70470000      -0.77230000       2.08790000
H       -4.84510000      -1.79560000       0.08750000
H       -2.00390000      -1.32740000      -3.08470000
