18
Properties=species:S:1:pos:R:3 gdb_38772=T pbc="F F F"
C       -0.00300000       1.50630000      -0.00120000
C        1.40960000       2.06190000       0.00450000
N        1.68670000       3.15490000       0.95380000
C        2.29150000       1.81880000       1.17550000
C        1.83530000       1.07120000       2.38130000
C        1.08630000      -0.03260000       2.38020000
C        0.56730000      -0.73060000       1.17070000
O       -0.85460000      -0.67090000       0.93660000
C        0.01630000      -0.01130000       0.01310000
H       -0.51940000       1.85450000       0.89500000
H       -0.56240000       1.87790000      -0.86680000
H        1.90330000       2.10890000      -0.96490000
H        2.38340000       3.78830000       0.56960000
H        3.36020000       1.73860000       0.97500000
H        2.16540000       1.48000000       3.33490000
H        0.82750000      -0.49750000       3.32990000
H        0.97740000      -1.72930000       1.00520000
H        0.07950000      -0.50380000      -0.95880000
