22
Properties=species:S:1:pos:R:3 gdb_113829=T pbc="F F F"
C        0.10460000       1.63970000      -0.03940000
C       -0.28940000       0.16870000      -0.15230000
N        0.49610000      -0.48200000      -1.19620000
C        1.74550000      -1.12440000      -0.79700000
C        0.58300000      -1.94660000      -1.24020000
C       -0.14540000      -2.83120000      -0.27650000
C       -1.51200000      -3.39000000      -0.64990000
C       -0.31110000      -4.29530000      -0.58460000
O        0.26600000      -4.76620000      -1.76840000
H        1.15560000       1.74000000       0.25160000
H       -0.02800000       2.14670000      -0.99920000
H       -0.50530000       2.14850000       0.71380000
H       -0.17990000      -0.31440000       0.83350000
H       -1.34710000       0.08520000      -0.42960000
H        2.60260000      -0.96720000      -1.44690000
H        1.98450000      -1.14730000       0.26710000
H        0.59780000      -2.33940000      -2.25320000
H        0.00030000      -2.60150000       0.77370000
H       -2.27810000      -3.46760000       0.11390000
H       -1.87760000      -3.14540000      -1.64230000
H       -0.24290000      -4.98590000       0.25610000
H       -0.34260000      -5.39880000      -2.16330000
