18
Properties=species:S:1:pos:R:3 gdb_31836=T pbc="F F F"
C        0.07030000       1.44600000       0.03050000
N       -0.02730000       0.00450000       0.00600000
C       -1.21410000      -0.67760000       0.03390000
N       -1.14190000      -1.99650000       0.25760000
C       -2.28970000      -2.67070000       0.25130000
C       -3.53070000      -2.07270000       0.03190000
C       -4.81660000      -2.85330000       0.02540000
N       -3.59650000      -0.74880000      -0.17920000
C       -2.46580000      -0.05870000      -0.17750000
H        1.12510000       1.72580000       0.05240000
H       -0.36990000       1.88790000      -0.87120000
H       -0.42380000       1.89610000       0.90440000
H        0.75800000      -0.53490000       0.33380000
H       -2.21940000      -3.74130000       0.43360000
H       -4.63860000      -3.91310000       0.22670000
H       -5.50950000      -2.47010000       0.78170000
H       -5.32050000      -2.76770000      -0.94320000
H       -2.54240000       1.01140000      -0.34730000
