18
Properties=species:S:1:pos:R:3 gdb_77143=T pbc="F F F"
C       -0.07400000       1.42530000       0.11120000
N       -0.01900000      -0.01180000       0.00970000
C       -1.05090000      -1.03740000       0.09690000
C        0.09380000      -2.10250000      -0.02250000
C        1.03990000      -0.87890000      -0.09280000
O        2.22440000      -0.70380000      -0.19650000
C       -1.82690000      -1.08180000       1.40910000
C       -3.01110000      -2.02830000       1.44420000
O       -1.50420000      -0.40040000       2.35400000
H        0.95140000       1.79590000       0.04180000
H       -0.66140000       1.86220000      -0.70560000
H       -0.50460000       1.73040000       1.06920000
H       -1.74710000      -1.04680000      -0.75280000
H        0.24380000      -2.72650000       0.86090000
H        0.06770000      -2.72320000      -0.91900000
H       -2.74460000      -3.01150000       1.04180000
H       -3.37700000      -2.12640000       2.46660000
H       -3.81480000      -1.63300000       0.81130000
