12
Properties=species:S:1:pos:R:3 gdb_6248=T pbc="F F F"
N       -0.20850000       1.35990000      -0.00060000
C        0.13820000       0.02110000       0.07660000
O        1.26230000      -0.37680000       0.23480000
N       -1.00530000      -0.80760000       0.01610000
C       -1.01630000      -2.19700000      -0.08950000
O       -0.05390000      -2.89580000      -0.27940000
C       -2.36930000      -2.73040000       0.03870000
C       -3.47200000      -3.19960000       0.13710000
H        0.59250000       1.96690000      -0.09040000
H       -1.00080000       1.62480000      -0.56610000
H       -1.90470000      -0.37350000       0.16020000
H       -4.43900000      -3.63260000       0.22510000
