21
Properties=species:S:1:pos:R:3 gdb_47923=T pbc="F F F"
O        0.00100000      -0.05540000       0.10370000
C       -0.00370000       1.15140000       0.02260000
C       -1.31350000       1.93810000       0.02190000
C       -1.38970000       3.12120000      -0.95460000
C       -1.21040000       2.69820000      -2.41680000
O       -0.06840000       1.88970000      -2.63090000
C        1.19700000       2.52390000      -2.49200000
C        1.99840000       1.84660000      -1.38270000
C        1.31660000       1.92780000      -0.00250000
H       -2.11790000       1.21880000      -0.15970000
H       -1.44800000       2.31800000       1.04500000
H       -2.36300000       3.61640000      -0.85500000
H       -0.64250000       3.87830000      -0.69050000
H       -2.05790000       2.07960000      -2.73160000
H       -1.18810000       3.58740000      -3.06630000
H        1.73090000       2.43530000      -3.44770000
H        1.07770000       3.59670000      -2.28420000
H        2.13380000       0.79060000      -1.64010000
H        2.99480000       2.30150000      -1.33190000
H        1.17410000       2.97470000       0.28770000
H        1.96820000       1.45860000       0.74060000
