19
Properties=species:S:1:pos:R:3 gdb_10736=T pbc="F F F"
C        0.37140000       1.51280000       0.21940000
C       -0.06240000       0.04990000       0.00840000
C        0.50380000      -0.84590000       1.12630000
C       -1.53480000      -0.02950000       0.01680000
C       -2.73600000      -0.10160000       0.00440000
N        0.55280000      -0.40280000      -1.25890000
C       -0.03630000      -1.51710000      -1.99150000
C       -0.11420000      -0.12780000      -2.52570000
H        1.46310000       1.56930000       0.20810000
H       -0.01920000       2.14910000      -0.57900000
H       -0.00040000       1.89190000       1.17480000
H        0.13520000      -0.52350000       2.10350000
H        0.20730000      -1.88680000       0.97280000
H        1.59550000      -0.78880000       1.11470000
H       -3.79670000      -0.15990000       0.00670000
H        0.67240000      -2.23200000      -2.39980000
H       -0.96590000      -1.94330000      -1.62060000
H       -1.09410000       0.34380000      -2.50010000
H        0.53630000       0.19570000      -3.33330000
