21
Properties=species:S:1:pos:R:3 gdb_89494=T pbc="F F F"
C       -0.11720000       1.58340000      -0.16070000
C       -0.06220000       0.05730000      -0.04300000
C        1.15960000      -0.55070000      -0.83640000
C        1.98110000      -0.59020000       0.50760000
C        0.63250000      -0.49910000       1.18090000
C       -0.17800000      -1.13290000       2.02530000
C       -1.61930000      -0.93540000       1.56510000
O       -2.32120000       0.06810000       2.30350000
C       -1.45490000      -0.60110000       0.04210000
H        0.86340000       2.04510000      -0.00210000
H       -0.46680000       1.87830000      -1.15670000
H       -0.81300000       2.00590000       0.57170000
H        0.95160000      -1.55720000      -1.20640000
H        1.57120000       0.06020000      -1.64430000
H        2.59080000      -1.47120000       0.71820000
H        2.60060000       0.30410000       0.62550000
H        0.09440000      -1.74880000       2.87440000
H       -2.21760000      -1.84300000       1.69800000
H       -1.67860000       0.74430000       2.54100000
H       -2.27910000       0.02360000      -0.31320000
H       -1.46800000      -1.53810000      -0.52550000
