18
Properties=species:S:1:pos:R:3 gdb_41604=T pbc="F F F"
C        0.00830000       1.50060000      -0.03370000
C        1.57100000       1.45740000      -0.12240000
C        1.52280000      -0.06790000       0.01720000
C       -0.01230000      -0.02540000       0.10430000
C        0.67390000      -0.67480000      -1.06620000
C        0.60280000      -0.23040000      -2.53600000
O        0.52710000      -1.48380000      -3.25850000
C        0.55440000      -2.44930000      -2.30740000
N        0.63270000      -2.12550000      -1.08430000
H       -0.33520000       2.00810000       0.86980000
H       -0.53230000       1.92360000      -0.88740000
H        2.03410000       1.85250000      -1.03310000
H        2.04190000       1.94230000       0.73490000
H        2.22130000      -0.68750000       0.56560000
H       -0.67730000      -0.60720000       0.73020000
H       -0.28730000       0.35800000      -2.77970000
H        1.49070000       0.30880000      -2.88070000
H        0.50460000      -3.46150000      -2.69120000
