19
Properties=species:S:1:pos:R:3 gdb_39461=T pbc="F F F"
C        0.09990000       1.42940000      -0.31500000
C        1.28510000       0.60740000       0.13160000
N        1.78790000       0.78230000       1.45480000
C        2.57660000      -0.35290000       1.92870000
C        1.80620000      -1.67290000       1.77170000
N        0.55670000      -1.68670000       2.50610000
C       -0.49560000      -1.08280000       2.17310000
O       -0.87850000      -0.30460000       1.11780000
C       -0.07900000      -0.02890000      -0.00420000
H       -0.31550000       2.10790000       0.42140000
H        0.05020000       1.76300000      -1.34490000
H        1.99500000       0.32410000      -0.65410000
H        2.30680000       1.64790000       1.54330000
H        3.53650000      -0.46740000       1.39180000
H        2.80510000      -0.18940000       2.98740000
H        1.67380000      -1.89540000       0.70530000
H        2.43880000      -2.46990000       2.17770000
H       -1.36420000      -1.14580000       2.82940000
H       -0.24220000      -0.73030000      -0.81760000
