13
Properties=species:S:1:pos:R:3 gdb_125805=T pbc="F F F"
C       -0.01730000       1.48680000       0.03210000
C       -0.01060000       0.00360000       0.03760000
N       -0.04230000      -0.74240000      -1.03180000
O       -0.02160000      -2.10670000      -0.59240000
C        0.02180000      -2.07700000       0.73860000
N        0.05830000      -2.92500000       1.73590000
C        0.08880000      -2.04620000       2.79460000
N        0.07400000      -0.74310000       2.52020000
N        0.02960000      -0.79220000       1.15540000
H        0.88290000       1.87130000       0.52070000
H       -0.05620000       1.84590000      -0.99650000
H       -0.88310000       1.86350000       0.58490000
H        0.12390000      -2.39010000       3.81800000
