18
Properties=species:S:1:pos:R:3 gdb_131810=T pbc="F F F"
O       -0.05590000       1.42640000      -0.15490000
C        0.01030000       0.01490000      -0.01990000
C       -1.41370000      -0.52340000      -0.02310000
C       -1.46160000      -2.05250000       0.12990000
C       -2.85420000      -2.59090000       0.06240000
N       -3.45040000      -3.16920000       1.09590000
N       -4.67010000      -3.47840000       0.59000000
C       -4.75550000      -3.08320000      -0.69470000
N       -3.62640000      -2.51700000      -1.06680000
H        0.84190000       1.77050000      -0.15460000
H        0.58000000      -0.43930000      -0.84790000
H        0.51630000      -0.27250000       0.91710000
H       -1.97240000      -0.04910000       0.79170000
H       -1.90390000      -0.23250000      -0.95780000
H       -0.86790000      -2.51540000      -0.66830000
H       -1.02190000      -2.35780000       1.08440000
H       -5.35200000      -3.94040000       1.16830000
H       -5.63640000      -3.22810000      -1.30230000
