16
Properties=species:S:1:pos:R:3 gdb_67432=T pbc="F F F"
O       -0.14190000       1.41650000       0.05220000
C        0.02160000       0.06360000       0.03170000
C       -0.02980000      -0.98220000      -1.03800000
C        1.22620000      -1.66900000      -0.52030000
C        0.92740000      -0.97750000       0.84590000
N       -0.32230000      -1.59410000       1.36720000
C       -1.01650000      -1.00080000       0.24360000
C       -2.46260000      -0.97610000       0.02630000
O       -3.26100000      -1.60690000       0.67820000
H        0.50580000       1.81830000      -0.53850000
H       -0.43770000      -0.92500000      -2.03890000
H        1.26590000      -2.76350000      -0.51530000
H        2.12470000      -1.26580000      -0.99590000
H        1.71340000      -0.76090000       1.56660000
H       -0.30970000      -2.61420000       1.37170000
H       -2.77950000      -0.32660000      -0.82080000
