23
Properties=species:S:1:pos:R:3 gdb_59712=T pbc="F F F"
C        0.04180000       1.55670000       0.03280000
C        0.00940000       0.02740000       0.04090000
O        0.72500000      -0.48730000       1.16460000
C       -1.41140000      -0.54970000      -0.01190000
C       -2.23190000      -0.14020000      -1.26190000
C       -3.27660000      -1.26380000      -1.45650000
C       -2.61560000      -2.51320000      -0.89050000
C       -1.19310000      -2.79250000      -1.30980000
C       -1.46830000      -2.07460000      -0.00890000
H        1.07230000       1.91010000       0.12650000
H       -0.38290000       1.96660000      -0.88850000
H       -0.53590000       1.96140000       0.87430000
H        0.56630000      -0.34920000      -0.82640000
H        0.30170000      -0.14250000       1.95890000
H       -1.94230000      -0.19540000       0.88700000
H       -2.69570000       0.84350000      -1.15480000
H       -1.57200000      -0.07920000      -2.13500000
H       -4.18250000      -1.04250000      -0.87910000
H       -3.58150000      -1.36760000      -2.50380000
H       -3.24530000      -3.35290000      -0.61700000
H       -0.84730000      -3.81770000      -1.23690000
H       -0.76800000      -2.24980000      -2.14850000
H       -1.23060000      -2.59060000       0.91320000
