23
Properties=species:S:1:pos:R:3 gdb_108792=T pbc="F F F"
C        0.29750000       1.46580000      -0.40050000
C       -0.18720000       0.10080000       0.12030000
C        0.60240000      -0.41170000       1.28930000
C        0.15660000      -0.61710000       2.53070000
C        1.20070000      -1.22460000       3.44470000
C        1.24440000      -0.60740000       4.84430000
O        1.00600000      -2.64990000       3.56080000
C        2.50220000      -1.02910000       2.63250000
C        2.05820000      -0.82090000       1.16730000
H        1.33810000       1.42200000      -0.73660000
H       -0.31160000       1.79530000      -1.24780000
H        0.23100000       2.22760000       0.38250000
H       -1.24460000       0.17240000       0.39880000
H       -0.12930000      -0.62940000      -0.69950000
H       -0.86260000      -0.43570000       2.86280000
H        0.29550000      -0.77090000       5.36950000
H        2.04020000      -1.06810000       5.43760000
H        1.41830000       0.47240000       4.79790000
H        0.11020000      -2.79610000       3.88340000
H        3.02420000      -0.13740000       2.99220000
H        3.16640000      -1.88500000       2.77010000
H        2.13800000      -1.74370000       0.57650000
H        2.66970000      -0.07320000       0.65010000
