18
Properties=species:S:1:pos:R:3 gdb_91204=T pbc="F F F"
C       -0.11180000       1.54960000       0.12150000
C       -0.00870000       0.04800000      -0.00340000
C       -1.27790000      -0.82500000       0.27810000
O       -1.71810000      -1.67780000      -0.75220000
C       -0.42830000      -1.58050000       1.32000000
N        0.78940000      -0.75330000       1.03200000
C        1.64260000      -1.35320000      -0.04510000
C        0.89180000      -0.53180000      -1.10490000
O        0.99470000      -0.34650000      -2.28090000
H        0.87880000       2.01310000       0.14900000
H       -0.65530000       1.96000000      -0.73690000
H       -0.64440000       1.83070000       1.03570000
H       -2.10510000      -0.23570000       0.69800000
H       -2.08380000      -1.14160000      -1.46460000
H       -0.75840000      -1.46350000       2.35520000
H       -0.32030000      -2.64610000       1.09690000
H        2.69980000      -1.08370000       0.05690000
H        1.56800000      -2.44050000      -0.15730000
