15
Properties=species:S:1:pos:R:3 gdb_123505=T pbc="F F F"
C        0.00090000       1.39730000       0.01000000
C        1.32320000       1.81710000      -0.00050000
N        2.10890000       0.70720000      -0.01420000
N        3.45860000       0.71710000      -0.02720000
C        4.02350000      -0.46340000      -0.03910000
C        3.32800000      -1.70310000      -0.03910000
C        1.95890000      -1.68690000      -0.02580000
C        1.29230000      -0.44940000      -0.01260000
C       -0.02720000      -0.00950000       0.00250000
H       -0.85480000       2.05550000       0.02190000
H        1.77180000       2.79620000       0.00060000
H        5.10860000      -0.43980000      -0.04950000
H        3.88640000      -2.63040000      -0.04960000
H        1.37370000      -2.59990000      -0.02510000
H       -0.89830000      -0.64610000       0.00740000
