23
Properties=species:S:1:pos:R:3 gdb_112127=T pbc="F F F"
C        0.40420000       0.05170000       1.81990000
C       -0.09420000       0.37480000       0.40860000
C       -1.32510000      -0.46140000      -0.05940000
C       -1.86070000       0.13010000      -1.34270000
C       -1.57630000      -0.21160000      -2.59780000
C       -0.67410000      -1.33830000      -3.03500000
C       -1.06970000      -2.71320000      -2.47530000
C       -0.96460000      -2.86430000      -0.98100000
C       -1.05240000      -1.94630000      -0.01690000
H        1.21100000       0.73240000       2.10960000
H       -0.39870000       0.15670000       2.55890000
H        0.79270000      -0.96840000       1.89110000
H       -0.37130000       1.43490000       0.35770000
H        0.71580000       0.23320000      -0.31630000
H       -2.09810000      -0.29150000       0.70700000
H       -2.51500000       0.98730000      -1.19070000
H       -2.03310000       0.37280000      -3.39380000
H       -0.66980000      -1.39340000      -4.12870000
H        0.36190000      -1.12780000      -2.73740000
H       -2.09430000      -2.95220000      -2.79590000
H       -0.43370000      -3.47770000      -2.94030000
H       -0.79700000      -3.88960000      -0.65260000
H       -0.93270000      -2.31680000       1.00000000
