17
Properties=species:S:1:pos:R:3 gdb_85324=T pbc="F F F"
C        0.04840000       1.55080000      -0.14960000
C        0.02180000       0.04350000       0.03120000
O        0.62790000      -0.58420000      -1.12460000
C        1.31370000      -1.71520000      -0.79900000
O        1.74700000      -2.46940000      -1.61790000
C        1.46540000      -1.79090000       0.72620000
O        2.76230000      -1.29980000       1.12200000
C        2.18850000      -0.05080000       1.57650000
C        0.75550000      -0.53410000       1.25180000
H        1.07160000       1.92500000      -0.23510000
H       -0.49250000       1.83130000      -1.05670000
H       -0.43340000       2.03900000       0.70350000
H       -1.02230000      -0.29540000       0.06080000
H        1.25140000      -2.78900000       1.11540000
H        2.39210000       0.11880000       2.63900000
H        2.55930000       0.80350000       0.99990000
H        0.10000000      -0.63790000       2.11540000
