19
Properties=species:S:1:pos:R:3 gdb_72660=T pbc="F F F"
C        0.18910000       1.54350000      -0.05810000
C        0.04480000       0.04250000       0.04380000
C        0.45430000      -0.76900000      -1.18690000
O        0.78490000      -2.06880000      -0.70190000
C        1.45260000      -1.87800000       0.53470000
C        0.71210000      -0.72530000       1.22640000
O        1.49940000       0.05720000       2.08450000
C       -0.73810000      -1.03310000       1.65780000
O       -1.27440000      -0.35680000       0.50470000
H        1.20390000       1.82150000      -0.35700000
H       -0.51320000       1.93720000      -0.80040000
H       -0.02590000       2.01240000       0.90450000
H       -0.35880000      -0.87260000      -1.90900000
H        1.32410000      -0.30470000      -1.67960000
H        1.42370000      -2.82660000       1.08010000
H        2.50410000      -1.57770000       0.39020000
H        1.80230000      -0.49240000       2.81510000
H       -1.02410000      -2.09160000       1.68340000
H       -1.02780000      -0.54370000       2.59620000
