24
Properties=species:S:1:pos:R:3 gdb_102574=T pbc="F F F"
C       -2.66880000       1.23530000      -1.83850000
C       -1.88900000      -0.01310000      -1.40970000
C       -0.64890000      -0.34570000      -2.27730000
O        0.57710000       0.10290000      -1.70510000
C        0.75200000       1.49900000      -1.66020000
C       -0.49590000      -1.84500000      -2.43020000
C       -1.09200000      -2.55350000      -3.60030000
N        0.35320000      -2.46940000      -3.43720000
C        1.10670000      -1.64400000      -4.37000000
H       -2.05720000       2.14130000      -1.80110000
H       -3.03820000       1.13110000      -2.86470000
H       -3.53700000       1.39480000      -1.19110000
H       -1.55000000       0.07780000      -0.37110000
H       -2.56830000      -0.87280000      -1.43460000
H       -0.77150000       0.12450000      -3.26650000
H        1.78750000       1.68280000      -1.36130000
H        0.58070000       1.96510000      -2.64380000
H        0.09120000       1.98610000      -0.92880000
H       -0.46830000      -2.36120000      -1.47040000
H       -1.53600000      -3.54000000      -3.49230000
H       -1.55430000      -1.93260000      -4.36890000
H        0.53850000      -0.80600000      -4.80370000
H        1.98170000      -1.23520000      -3.85790000
H        1.44800000      -2.27610000      -5.19620000
