17
Properties=species:S:1:pos:R:3 gdb_27209=T pbc="F F F"
N        0.01230000       1.44170000       0.15560000
C       -0.00830000       0.03830000       0.04640000
C       -1.11720000      -0.79310000       0.03070000
C       -2.56020000      -0.84190000       0.03910000
C       -2.96840000      -2.12550000       0.00610000
C       -1.76830000      -3.05550000      -0.02710000
N       -0.66490000      -2.10650000      -0.00580000
C        0.69350000      -2.12960000      -0.01230000
C        1.13330000      -0.81620000       0.02030000
H        0.83550000       1.84280000      -0.27560000
H       -0.80740000       1.87690000      -0.24810000
H       -3.20430000       0.02650000       0.07210000
H       -3.98570000      -2.48860000       0.00440000
H       -1.73700000      -3.73060000       0.83890000
H       -1.74670000      -3.68040000      -0.93050000
H        1.25100000      -3.05230000      -0.04150000
H        2.16550000      -0.49800000       0.03000000
