14
Properties=species:S:1:pos:R:3 gdb_44978=T pbc="F F F"
N       -0.08650000       1.20390000       0.44180000
C       -0.01520000       0.00190000       0.07460000
N       -1.10120000      -0.84840000      -0.10500000
C       -0.70440000      -2.05270000      -0.76460000
C        0.03910000      -1.91220000      -2.09990000
C        0.80630000      -1.92590000      -0.81250000
O        1.13930000      -0.69960000      -0.21640000
C       -1.39400000      -3.26700000      -0.42750000
N       -1.95460000      -4.24980000      -0.18920000
H        0.83780000       1.62330000       0.50080000
H       -1.99240000      -0.41690000      -0.29510000
H        0.11190000      -2.80200000      -2.71500000
H       -0.08240000      -0.97430000      -2.63030000
H        1.47960000      -2.73110000      -0.55130000
