17
Properties=species:S:1:pos:R:3 gdb_72679=T pbc="F F F"
N        0.01260000       1.41840000      -0.46900000
C        0.01690000       0.04260000      -0.10210000
C        0.61160000      -0.92680000      -1.16300000
C       -0.72110000      -1.73420000      -1.21470000
C       -1.27790000      -0.87630000      -0.05940000
O       -0.88470000      -1.38050000       1.23230000
C        0.21100000      -0.44130000       1.35060000
C       -2.64220000      -0.39150000      -0.10100000
N       -3.71980000       0.02530000      -0.15220000
H       -0.25970000       2.02720000       0.29500000
H        0.91660000       1.71840000      -0.81620000
H        0.84700000      -0.42110000      -2.10110000
H        1.49010000      -1.48150000      -0.82670000
H       -1.26880000      -1.59210000      -2.14830000
H       -0.67100000      -2.79800000      -0.97800000
H        1.15670000      -0.93600000       1.60150000
H       -0.00810000       0.33030000       2.10240000
