13
Properties=species:S:1:pos:R:3 gdb_21141=T pbc="F F F"
C       -0.09220000       1.36980000       0.07460000
N       -0.17400000      -0.06750000      -0.13760000
C        0.50060000      -0.58200000      -1.05070000
O        1.35180000      -0.01400000      -1.94780000
N        1.93150000      -1.05040000      -2.75960000
C        1.35150000      -2.11580000      -2.32790000
N        1.47700000      -3.37680000      -2.82390000
O        0.48250000      -1.94400000      -1.30970000
H        0.82500000       1.82460000      -0.31840000
H       -0.94850000       1.86640000      -0.39740000
H       -0.15220000       1.57060000       1.14800000
H        2.26410000      -3.50230000      -3.44320000
H        1.35410000      -4.11630000      -2.14800000
