19
Properties=species:S:1:pos:R:3 gdb_33002=T pbc="F F F"
C        0.04300000       1.56760000      -0.09910000
C       -0.00440000       0.05390000       0.01210000
O        0.64660000      -0.48320000      -1.13150000
C        0.73370000      -1.83470000      -1.26110000
C        0.22430000      -2.75600000      -0.34210000
C        0.37450000      -4.12280000      -0.58320000
C        1.02290000      -4.58180000      -1.72300000
C        1.52910000      -3.65480000      -2.63630000
C        1.38790000      -2.29370000      -2.41120000
H        1.07790000       1.91870000      -0.13530000
H       -0.46600000       1.90300000      -1.00690000
H       -0.44930000       2.02380000       0.76470000
H        0.50160000      -0.28640000       0.92690000
H       -1.04380000      -0.30210000       0.05460000
H       -0.28490000      -2.42550000       0.55360000
H       -0.02490000      -4.82980000       0.13710000
H        1.13460000      -5.64540000      -1.90120000
H        2.03840000      -3.99550000      -3.53200000
H        1.77470000      -1.56020000      -3.10950000
