21
Properties=species:S:1:pos:R:3 gdb_40693=T pbc="F F F"
C       -0.48330000       1.22780000      -0.26060000
C        0.92820000       1.16940000       0.26100000
C        0.16610000      -0.10760000      -0.01180000
C       -0.23550000      -0.99320000       1.13120000
N       -1.41860000      -0.63250000       1.93720000
C       -1.44410000      -1.86870000       1.14220000
C       -2.44810000      -1.94380000       0.02830000
C       -3.89390000      -1.81390000       0.34600000
N       -3.19060000      -0.75430000      -0.39530000
H       -1.25190000       1.53910000       0.43630000
H       -0.65090000       1.52980000      -1.28780000
H        1.74480000       1.43420000      -0.40160000
H        1.08780000       1.44450000       1.29890000
H        0.47740000      -0.65860000      -0.89570000
H        0.61160000      -1.39360000       1.68960000
H       -1.26640000      -0.83210000       2.92080000
H       -1.32820000      -2.80820000       1.68360000
H       -2.15690000      -2.60160000      -0.78920000
H       -4.63420000      -2.36810000      -0.22410000
H       -4.15990000      -1.62340000       1.38300000
H       -2.96110000      -0.00720000       0.25800000
