20
Properties=species:S:1:pos:R:3 gdb_115775=T pbc="F F F"
C       -0.22820000       1.28580000       0.39180000
O       -0.47780000      -0.00500000       0.90660000
C       -1.34030000      -0.76590000       0.11820000
C       -0.87430000      -1.34890000      -1.24680000
C       -1.62880000      -2.65430000      -0.86240000
C       -1.57910000      -2.21610000       0.61880000
O       -0.42110000      -2.79890000       1.20400000
C       -0.14170000      -2.44550000       2.47750000
N        0.88220000      -2.91810000       3.04390000
H        0.44180000       1.78910000       1.09200000
H        0.25440000       1.24510000      -0.59500000
H       -1.15680000       1.87060000       0.30080000
H       -2.31250000      -0.25860000      -0.00160000
H       -1.17420000      -0.82930000      -2.15840000
H        0.20690000      -1.50430000      -1.24680000
H       -2.65200000      -2.68030000      -1.24370000
H       -1.13630000      -3.60320000      -1.07470000
H       -2.45420000      -2.39440000       1.25310000
H       -0.87510000      -1.75810000       2.91460000
H        0.93860000      -2.56690000       3.99770000
