18
Properties=species:S:1:pos:R:3 gdb_63118=T pbc="F F F"
C       -0.04560000       1.56930000       0.05080000
C        0.06180000       0.06110000       0.04720000
O       -1.10500000      -0.57650000      -0.39890000
C        1.31240000      -0.71930000      -0.25210000
C        2.57520000      -0.05790000       0.30610000
C        1.94660000      -0.06330000       1.73670000
C        0.68380000      -0.74180000       1.17500000
C       -0.02750000      -1.78270000       1.84050000
N       -0.56920000      -2.62410000       2.42260000
H        0.84300000       2.05930000       0.45260000
H       -0.19010000       1.93540000      -0.97280000
H       -0.91120000       1.87570000       0.64480000
H       -1.19020000      -0.41790000      -1.34560000
H        1.27980000      -1.51970000      -0.98170000
H        3.44860000      -0.70920000       0.24440000
H        2.83820000       0.91420000      -0.12030000
H        2.48520000      -0.71870000       2.42180000
H        1.79110000       0.90130000       2.22650000
