19
Properties=species:S:1:pos:R:3 gdb_87755=T pbc="F F F"
C        0.09880000       1.53440000      -0.29750000
C        0.05730000       0.04490000      -0.06170000
N        1.36170000      -0.65120000       0.03140000
C        0.50190000      -0.58100000       1.20030000
C        0.92480000       0.06360000       2.53360000
N        0.26750000      -1.06840000       3.20050000
C       -0.13840000      -1.75090000       1.97060000
C       -0.06110000      -1.33790000       4.48150000
O       -0.71380000      -2.29940000       4.83480000
H        0.92920000       1.98890000       0.24950000
H        0.23780000       1.75490000      -1.36090000
H       -0.83420000       2.00780000       0.02690000
H       -0.74090000      -0.48140000      -0.58550000
H        1.31610000      -1.57440000      -0.39400000
H        2.00860000       0.11140000       2.68570000
H        0.47970000       1.04050000       2.75520000
H       -1.22240000      -1.87120000       1.86770000
H        0.34320000      -2.72660000       1.83120000
H        0.34050000      -0.57640000       5.18140000
