18
Properties=species:S:1:pos:R:3 gdb_108165=T pbc="F F F"
C       -0.05940000       1.49620000      -0.03250000
C        0.07390000      -0.00710000       0.03870000
C        1.37740000      -0.77070000      -0.18610000
N        2.61410000      -0.03890000      -0.04210000
C        2.63830000       0.36310000       1.16270000
O        1.61270000       0.02070000       1.99120000
C        0.70780000      -0.74670000       1.18390000
C        0.07800000      -1.86560000       1.96220000
O        1.03240000      -2.75590000       2.50770000
H        0.84640000       2.00710000       0.29980000
H       -0.25790000       1.81220000      -1.06130000
H       -0.88780000       1.84160000       0.59450000
H       -0.77870000      -0.54790000      -0.36690000
H        1.39660000      -1.62530000      -0.85160000
H        3.41140000       0.96660000       1.62290000
H       -0.57330000      -1.44600000       2.74620000
H       -0.55650000      -2.45150000       1.29010000
H        1.63560000      -2.22490000       3.03920000
