24
Properties=species:S:1:pos:R:3 gdb_60402=T pbc="F F F"
C        0.23910000       1.53130000      -0.14930000
C       -0.09730000       0.05550000       0.06480000
O        0.01190000      -0.67940000      -1.15490000
C        0.74220000      -0.58130000       1.17970000
C        0.36510000      -2.04290000       1.45740000
C        1.20290000      -2.67750000       2.54850000
C        1.38900000      -4.15500000       2.62750000
N        2.52090000      -3.28540000       2.32780000
C        3.08310000      -3.35820000       0.98860000
H        1.29850000       1.65460000      -0.40830000
H       -0.36180000       1.94380000      -0.96430000
H        0.04940000       2.11760000       0.75560000
H       -1.15850000      -0.03210000       0.33230000
H        0.91620000      -0.57760000      -1.47320000
H        1.80480000      -0.51470000       0.90390000
H        0.62970000       0.01270000       2.09640000
H       -0.68770000      -2.08630000       1.76890000
H        0.42360000      -2.61170000       0.52600000
H        1.16370000      -2.13180000       3.49240000
H        1.41650000      -4.67080000       3.58440000
H        0.97120000      -4.74290000       1.80940000
H        2.35420000      -3.56230000       0.18880000
H        3.59620000      -2.41880000       0.75560000
H        3.82880000      -4.15980000       0.96910000
