14
Properties=species:S:1:pos:R:3 gdb_45396=T pbc="F F F"
O        0.00310000       0.03430000      -0.40560000
C       -0.04250000       1.17590000      -0.07600000
C       -1.13510000       2.11760000       0.45680000
C       -0.07780000       3.23750000       0.57780000
O        0.59030000       3.22580000       1.84670000
C        1.69350000       2.45040000       1.34130000
C        1.03030000       2.31660000      -0.06140000
C        1.80250000       2.57820000      -1.24270000
N        2.41150000       2.78980000      -2.20320000
H       -1.87960000       2.31150000      -0.32410000
H       -1.64260000       1.82490000       1.37810000
H       -0.32040000       4.23860000       0.22120000
H        2.62010000       3.03260000       1.31480000
H        1.85370000       1.51770000       1.89110000
