19
Properties=species:S:1:pos:R:3 gdb_39179=T pbc="F F F"
C        0.16910000       1.39540000       0.41420000
C        1.63550000       1.40700000      -0.11670000
O        1.76120000       2.07990000      -1.36290000
C        1.46010000       1.36020000      -2.55290000
C        0.10470000       0.69190000      -2.64520000
C       -0.52470000       0.06430000      -1.65120000
C        2.39800000      -1.09650000      -0.04390000
C        1.52760000      -0.11110000      -0.19260000
C        0.00220000      -0.02450000      -0.23750000
H        0.13390000       1.35170000       1.50600000
H       -0.47700000       2.19030000       0.03840000
H        2.40560000       1.82900000       0.53470000
H        1.55100000       2.10670000      -3.34750000
H        2.23800000       0.60050000      -2.73580000
H       -0.34970000       0.70810000      -3.63310000
H       -1.49010000      -0.39690000      -1.84220000
H        2.08810000      -2.13710000      -0.02150000
H        3.45980000      -0.89880000       0.06920000
H       -0.54720000      -0.77200000       0.33930000
