19
Properties=species:S:1:pos:R:3 gdb_92220=T pbc="F F F"
O        0.07640000       1.44820000      -0.15190000
C        0.07670000       0.02950000      -0.02220000
C        0.69230000      -0.49470000       1.31550000
C       -0.54070000      -0.83100000       2.16680000
C       -1.41080000       0.45310000       2.33050000
C       -2.31560000       0.19570000       1.11180000
O       -2.83160000      -1.13750000       1.43510000
C       -1.48120000      -1.55830000       1.14110000
C       -1.36550000      -0.46280000       0.05760000
H        0.99030000       1.74120000      -0.22120000
H        0.58760000      -0.42040000      -0.88520000
H        1.29340000      -1.39230000       1.12540000
H        1.34730000       0.25070000       1.77810000
H       -0.33090000      -1.37110000       3.09000000
H       -2.00940000       0.44950000       3.24360000
H       -0.83470000       1.37680000       2.26670000
H       -3.08510000       0.91910000       0.84660000
H       -1.36260000      -2.62840000       0.96920000
H       -1.86910000      -0.67610000      -0.88370000
