13
Properties=species:S:1:pos:R:3 gdb_21023=T pbc="F F F"
C        0.02040000       1.43960000       0.06630000
N       -0.01450000      -0.00690000      -0.02240000
C       -0.18260000      -0.79880000      -1.11170000
N       -0.15380000      -2.06780000      -0.77260000
C        0.04010000      -2.00800000       0.57700000
C        0.15180000      -3.16760000       1.48330000
O        0.08430000      -4.31970000       1.13640000
N        0.12990000      -0.77220000       1.07010000
H        0.98170000       1.76620000       0.46910000
H       -0.11500000       1.85400000      -0.93380000
H       -0.78070000       1.79360000       0.71900000
H       -0.31860000      -0.39920000      -2.10600000
H        0.30780000      -2.87060000       2.54160000
