21
Properties=species:S:1:pos:R:3 gdb_121760=T pbc="F F F"
C        0.04100000       1.43620000      -0.10110000
O        0.00050000       0.03300000       0.00890000
C        0.60670000      -0.61320000      -1.06650000
C        0.53140000      -2.12970000      -0.89080000
O        0.00330000      -2.64120000       0.06350000
C        1.17610000      -2.93650000      -2.01340000
C        1.06830000      -4.44650000      -1.81110000
C        1.72030000      -5.23110000      -2.94120000
O        1.56390000      -6.61160000      -2.65690000
H        1.07500000       1.81540000      -0.13570000
H       -0.48440000       1.79240000      -1.00180000
H       -0.45570000       1.84350000       0.78220000
H        0.12680000      -0.35040000      -2.02840000
H        1.67050000      -0.32730000      -1.17240000
H        0.71300000      -2.63080000      -2.96290000
H        2.22730000      -2.62360000      -2.09570000
H        1.53400000      -4.72890000      -0.86200000
H        0.01630000      -4.73740000      -1.73200000
H        1.24810000      -4.96520000      -3.90240000
H        2.78630000      -4.95760000      -3.02020000
H        1.97680000      -7.11460000      -3.36480000
