17
Properties=species:S:1:pos:R:3 gdb_45782=T pbc="F F F"
O        0.01510000      -0.07940000       0.03910000
C       -0.00930000       1.13220000      -0.00740000
C       -1.29680000       1.95330000      -0.05190000
C       -1.16280000       3.28000000      -0.78420000
C       -1.80350000       3.43850000      -2.12760000
N       -2.36070000       4.12190000      -0.95030000
C        0.10370000       3.98670000      -0.47090000
C        1.17460000       3.28490000      -0.09330000
N        1.13940000       1.89170000       0.04730000
H       -2.08060000       1.32020000      -0.47350000
H       -1.56300000       2.15110000       0.99740000
H       -1.35430000       4.09460000      -2.86770000
H       -2.32970000       2.58020000      -2.53910000
H       -3.18340000       3.62460000      -0.61580000
H        0.14450000       5.06270000      -0.57620000
H        2.13430000       3.73770000       0.12300000
H        1.99710000       1.37270000       0.15850000
