23
Properties=species:S:1:pos:R:3 gdb_123003=T pbc="F F F"
C        0.12050000       0.95640000      -0.65160000
O        0.12080000      -0.38830000      -0.23840000
C        0.77130000      -0.58640000       0.99790000
C        0.82640000      -2.07420000       1.29090000
O        1.77750000      -2.68670000       0.43450000
C        1.36430000      -3.87630000      -0.18630000
C        1.35370000      -5.08770000       0.71930000
C        0.35760000      -3.73580000      -1.30210000
C        1.82130000      -3.99610000      -1.60820000
H        1.14320000       1.34330000      -0.78410000
H       -0.40270000       1.00550000      -1.60970000
H       -0.40000000       1.60640000       0.07010000
H        1.79640000      -0.18270000       0.96820000
H        0.23000000      -0.06830000       1.80880000
H        1.11100000      -2.22450000       2.34280000
H       -0.17220000      -2.50220000       1.14020000
H        0.62920000      -4.97130000       1.53350000
H        1.08430000      -5.98950000       0.16190000
H        2.34260000      -5.24020000       1.16480000
H       -0.35630000      -4.53640000      -1.46550000
H       -0.01420000      -2.73480000      -1.48790000
H        2.39940000      -3.16790000      -2.00050000
H        2.11150000      -4.97440000      -1.97610000
