14
Properties=species:S:1:pos:R:3 gdb_4865=T pbc="F F F"
C       -0.00260000       1.37920000       0.07780000
O       -0.00910000      -0.04770000       0.03410000
C       -1.23230000      -0.59300000      -0.02510000
N       -2.38640000       0.00250000      -0.04640000
C       -3.32640000      -1.03190000      -0.11090000
C       -2.68660000      -2.23350000      -0.12620000
O       -3.06250000      -3.53550000      -0.17950000
N       -1.33310000      -1.95770000      -0.07090000
H        1.04740000       1.67030000       0.12170000
H       -0.47900000       1.79630000      -0.81450000
H       -0.53820000       1.74210000       0.96020000
H       -4.38560000      -0.83180000      -0.14150000
H       -4.02340000      -3.57040000      -0.21340000
H       -0.58240000      -2.62670000      -0.06560000
