14
Properties=species:S:1:pos:R:3 gdb_15327=T pbc="F F F"
C        0.15530000       1.52040000       0.02130000
C        0.08040000       0.06830000       0.01050000
C        0.00590000      -1.13350000       0.01090000
C       -0.04020000      -2.56680000      -0.01350000
O       -0.49890000      -3.25310000       1.15950000
C       -1.32010000      -3.33160000      -0.00990000
C       -2.60220000      -2.68520000       0.02050000
C       -3.69240000      -2.17990000       0.01850000
H        1.19200000       1.86610000      -0.05320000
H       -0.40310000       1.95190000      -0.81650000
H       -0.26680000       1.92620000       0.94700000
H        0.80550000      -3.05480000      -0.49920000
H       -1.30720000      -4.30810000      -0.49470000
H       -4.65140000      -1.72360000       0.02550000
