15
Properties=species:S:1:pos:R:3 gdb_131570=T pbc="F F F"
O        0.27170000       0.95930000       0.89280000
C       -0.03220000       0.14630000      -0.23640000
C       -1.38700000      -0.37270000      -0.12530000
C       -2.50770000      -0.81430000      -0.05770000
C       -3.81230000      -1.34610000       0.03360000
C       -5.00790000      -0.74300000      -0.33540000
N       -5.98440000      -1.63310000      -0.06120000
N       -5.52640000      -2.78870000       0.46450000
C       -4.21390000      -2.62060000       0.52460000
H        1.17530000       1.27350000       0.78310000
H        0.05700000       0.72070000      -1.17340000
H        0.66890000      -0.70070000      -0.31630000
H       -5.21030000       0.22820000      -0.75690000
H       -6.97430000      -1.52230000      -0.20220000
H       -3.58050000      -3.40340000       0.91370000
