21
Properties=species:S:1:pos:R:3 gdb_111326=T pbc="F F F"
C        0.08160000       1.60780000       0.06230000
C       -0.06290000       0.08370000      -0.00070000
C        0.64950000      -0.53200000      -1.19910000
C        2.19430000      -0.57260000      -1.19860000
N        2.60080000      -1.44710000      -0.07120000
C        2.20390000      -2.05120000      -1.37230000
C        0.69020000      -2.07980000      -1.35860000
C       -0.23840000      -3.10850000      -0.85550000
N       -0.08880000      -2.86120000      -2.31030000
H        1.13420000       1.90140000       0.13770000
H       -0.33300000       2.08720000      -0.83210000
H       -0.43900000       2.02000000       0.93210000
H        0.34030000      -0.37030000       0.91020000
H       -1.12810000      -0.18090000      -0.04110000
H        0.29520000      -0.08310000      -2.13650000
H        2.87100000       0.17250000      -1.59770000
H        3.62040000      -1.44310000      -0.04500000
H        2.87230000      -2.69230000      -1.93290000
H        0.13860000      -4.06820000      -0.51310000
H       -1.14980000      -2.77780000      -0.36340000
H       -0.87630000      -2.31430000      -2.65250000
