22
Properties=species:S:1:pos:R:3 gdb_113764=T pbc="F F F"
C       -0.31870000       1.71590000       0.05050000
C       -0.12510000       0.25450000       0.44680000
N       -1.31670000      -0.51980000       0.09750000
C       -1.35530000      -1.12170000      -1.22650000
C       -1.22480000      -1.97600000      -0.00220000
C        0.05270000      -2.76750000       0.33910000
C       -0.31480000      -4.12020000       0.97030000
C        0.88740000      -2.99810000      -0.90640000
O        1.92550000      -2.44170000      -1.16220000
H        0.54980000       2.31200000       0.34610000
H       -0.44220000       1.81350000      -1.03300000
H       -1.20920000       2.13050000       0.53100000
H        0.79040000      -0.14060000      -0.02040000
H        0.00960000       0.18000000       1.53300000
H       -2.30160000      -1.06470000      -1.75850000
H       -0.47410000      -1.01080000      -1.85740000
H       -2.12950000      -2.47200000       0.34650000
H        0.67020000      -2.19470000       1.03780000
H       -0.89260000      -4.73660000       0.27240000
H        0.57910000      -4.68150000       1.25810000
H       -0.92510000      -3.96910000       1.86540000
H        0.44970000      -3.74540000      -1.60990000
