18
Properties=species:S:1:pos:R:3 gdb_99389=T pbc="F F F"
C        0.04780000       0.95090000       0.77650000
O       -0.13600000      -0.16470000      -0.10860000
C       -1.37300000      -0.68720000      -0.13450000
O       -2.29500000      -0.28770000       0.53250000
C       -1.46910000      -1.83040000      -1.14510000
N       -2.68960000      -2.60490000      -1.05550000
C       -2.78000000      -3.45930000       0.12290000
C       -3.92530000      -4.44850000      -0.02150000
O       -4.50190000      -4.95820000       0.90250000
H        1.09030000       1.24840000       0.66600000
H       -0.61750000       1.77290000       0.50140000
H       -0.16060000       0.65920000       1.80870000
H       -1.38580000      -1.38400000      -2.14470000
H       -0.59810000      -2.48380000      -1.03090000
H       -3.47550000      -1.96100000      -1.05590000
H       -1.86190000      -4.06410000       0.17840000
H       -2.87890000      -2.93180000       1.08220000
H       -4.18010000      -4.67960000      -1.08090000
