13
Properties=species:S:1:pos:R:3 gdb_133275=T pbc="F F F"
C       -0.13290000       1.42000000       0.00410000
N       -0.12530000      -0.02560000      -0.06950000
C        0.56580000      -0.64350000      -0.93400000
N        1.39370000       0.03460000      -1.90620000
N        2.08670000      -0.46560000      -2.76780000
O        2.12350000      -1.95150000      -2.87890000
C        1.37790000      -2.65310000      -2.00730000
C        0.61860000      -2.07940000      -1.06200000
F       -0.09650000      -2.82180000      -0.22920000
H        0.49880000       1.92250000      -0.73550000
H       -1.16650000       1.76670000      -0.10960000
H        0.18460000       1.71670000       1.01050000
H        1.44860000      -3.72730000      -2.14110000
