18
Properties=species:S:1:pos:R:3 gdb_17311=T pbc="F F F"
C       -0.22050000       1.59270000      -0.05730000
C        0.09530000       0.10240000       0.07230000
C        1.34620000      -0.68930000      -0.29770000
C        2.70880000      -0.13000000       0.20040000
C        2.65040000       1.15470000       0.98440000
C        2.19400000      -0.12450000       1.63090000
C        0.83070000      -0.69030000       1.12330000
O        0.24870000      -1.75960000       1.78640000
H        0.45000000       2.10030000      -0.75600000
H       -1.23780000       1.72010000      -0.44040000
H       -0.17150000       2.11690000       0.90190000
H       -0.75360000      -0.51390000      -0.22390000
H        1.29780000      -1.48460000      -1.03100000
H        3.64720000      -0.53140000      -0.15970000
H        3.62330000       1.49140000       1.33460000
H        1.98140000       1.96640000       0.74110000
H        2.66950000      -0.54510000       2.50770000
H       -0.32380000      -1.40750000       2.47800000
