15
Properties=species:S:1:pos:R:3 gdb_50012=T pbc="F F F"
N        0.04910000       1.16690000      -0.46590000
C        0.06440000      -0.03950000      -0.09420000
N        0.99820000      -0.96250000       0.38110000
C        0.07100000      -2.11100000       0.38940000
C       -1.01960000      -1.10080000      -0.02300000
O       -2.27820000      -0.96250000       0.56590000
C       -2.23570000      -1.28270000      -0.83930000
C       -2.68450000      -0.19060000      -1.76260000
O       -3.13520000      -0.41710000      -2.85690000
H        0.97080000       1.60320000      -0.42250000
H        1.98090000      -0.99060000       0.15430000
H        0.28390000      -2.88410000      -0.35620000
H       -0.06720000      -2.56380000       1.37500000
H       -2.54760000      -2.29150000      -1.10610000
H       -2.55870000       0.82930000      -1.35170000
