19
Properties=species:S:1:pos:R:3 gdb_117808=T pbc="F F F"
O        0.03310000       1.50170000      -0.25270000
C        0.08270000       0.09240000      -0.08720000
C       -1.31860000      -0.50650000       0.07440000
C       -1.36360000      -2.05150000       0.04360000
O       -0.69170000      -2.57790000      -1.10130000
C       -0.62770000      -2.68670000       1.25010000
O       -1.15540000      -2.26140000       2.48710000
C       -2.76720000      -2.49580000       0.07720000
C       -3.91330000      -2.85960000       0.12260000
H       -0.30760000       1.88180000       0.56340000
H        0.55240000      -0.30300000      -0.99120000
H        0.72460000      -0.18160000       0.76240000
H       -1.76090000      -0.17700000       1.02120000
H       -1.95140000      -0.11680000      -0.73140000
H       -1.20390000      -2.34250000      -1.88270000
H       -0.66440000      -3.77730000       1.12820000
H        0.42100000      -2.38130000       1.22790000
H       -2.06900000      -2.56820000       2.52850000
H       -4.92590000      -3.18100000       0.14470000
