17
Properties=species:S:1:pos:R:3 gdb_131780=T pbc="F F F"
O       -0.19010000       0.36580000       1.24900000
C       -0.14150000       0.22920000      -0.18320000
C       -1.37250000      -0.55300000      -0.63410000
C       -1.38320000      -2.00420000      -0.24720000
C       -1.22110000      -2.56630000       1.01330000
O       -0.97420000      -2.04440000       2.22300000
N       -1.36220000      -3.90290000       0.87320000
N       -1.61220000      -4.27940000      -0.41000000
C       -1.61970000      -3.13100000      -1.07270000
H        0.64330000       0.73750000       1.55390000
H       -0.14090000       1.22870000      -0.63880000
H        0.77400000      -0.29540000      -0.48560000
H       -2.25510000      -0.02520000      -0.24570000
H       -1.42980000      -0.47910000      -1.72580000
H       -0.71210000      -1.11190000       2.07580000
H       -1.29040000      -4.59380000       1.60020000
H       -1.80190000      -3.13220000      -2.13930000
