21
Properties=species:S:1:pos:R:3 gdb_88424=T pbc="F F F"
C       -0.12830000       1.46040000      -0.17140000
C        0.10610000      -0.02760000      -0.03840000
C        1.50940000      -0.60410000      -0.05330000
C        0.68660000      -0.61900000       1.21730000
O        1.02840000       0.32010000       2.20350000
C        0.10920000      -1.89100000       1.78650000
C        0.65450000      -3.25880000       1.41850000
C        0.93000000      -2.67060000       2.77480000
O        2.19940000      -2.14100000       3.05980000
H        0.61320000       2.02090000       0.40120000
H       -0.06910000       1.77300000      -1.21980000
H       -1.11820000       1.74020000       0.20570000
H       -0.64500000      -0.64970000      -0.52030000
H        1.68940000      -1.52380000      -0.59920000
H        2.33170000       0.10380000      -0.06820000
H        1.72620000      -0.09560000       2.72680000
H       -0.95290000      -1.83830000       2.01130000
H       -0.03170000      -4.09530000       1.34310000
H        1.48620000      -3.28520000       0.72310000
H        0.42270000      -3.10000000       3.63740000
H        2.83470000      -2.86180000       3.11210000
