19
Properties=species:S:1:pos:R:3 gdb_43006=T pbc="F F F"
O       -0.02670000       0.70460000      -1.37700000
C       -0.02130000       1.36170000      -0.35370000
C       -1.30830000       1.80440000       0.26280000
C       -1.63370000       1.61890000       1.74240000
C       -1.32080000       2.98610000       1.22310000
C       -0.02720000       3.73070000       1.52410000
C        1.27710000       3.02120000       1.18700000
C        1.64110000       1.66300000       1.69690000
C        1.26990000       1.83920000       0.22700000
H       -2.13920000       1.68110000      -0.42250000
H       -2.67010000       1.39090000       1.96630000
H       -0.93350000       1.10030000       2.38190000
H       -2.17740000       3.64700000       1.12640000
H       -0.04780000       4.66020000       0.94210000
H       -0.01670000       4.03570000       2.57900000
H        2.11260000       3.70480000       1.06680000
H        2.68910000       1.46320000       1.89190000
H        0.97310000       1.12610000       2.35540000
H        2.08450000       1.73810000      -0.48120000
