15
Properties=species:S:1:pos:R:3 gdb_4705=T pbc="F F F"
C       -0.00420000       1.49940000       0.09610000
C       -0.00270000       0.01350000      -0.05070000
C       -0.05300000      -0.78280000      -1.18970000
C       -0.02630000      -2.12870000      -0.78020000
C        0.04000000      -2.14430000       0.60700000
N        0.05280000      -0.82350000       1.02240000
C        0.09090000      -3.24160000       1.54680000
O        0.08320000      -4.41950000       1.25350000
H        0.89920000       1.86140000       0.60140000
H       -0.04650000       1.97100000      -0.88770000
H       -0.86730000       1.85260000       0.67300000
H       -0.10330000      -0.41040000      -2.20180000
H       -0.05110000      -3.01140000      -1.39960000
H        0.09710000      -0.52870000       1.98420000
H        0.14040000      -2.91880000       2.61630000
