14
Properties=species:S:1:pos:R:3 gdb_4190=T pbc="F F F"
O       -0.08280000       1.32130000      -0.00640000
N        0.02770000      -0.07480000       0.03380000
C       -1.11970000      -0.63870000      -0.00130000
C       -2.47450000      -0.06880000      -0.03470000
C       -3.38780000      -1.05050000       0.04770000
C       -2.72670000      -2.39130000       0.09000000
N       -1.96430000      -2.67380000      -1.16070000
C       -1.26470000      -2.12780000       0.03660000
H        0.83870000       1.59940000       0.02560000
H       -2.66620000       0.98940000      -0.13570000
H       -4.46240000      -0.91590000       0.04110000
H       -3.15700000      -3.21820000       0.64340000
H       -1.76590000      -3.67370000      -1.19810000
H       -0.52380000      -2.73440000       0.54180000
