20
Properties=species:S:1:pos:R:3 gdb_62228=T pbc="F F F"
C        0.16550000       1.46830000       0.29130000
C        0.02250000      -0.03890000      -0.00580000
C       -1.42910000      -0.54850000       0.16460000
C       -1.93870000      -0.46240000       1.60840000
N       -3.26720000      -1.03370000       1.75630000
C       -4.35550000      -0.30370000       2.12260000
O       -4.34970000       0.87800000       2.39490000
C        0.50850000      -0.34770000      -1.35000000
C        0.88990000      -0.59090000      -2.46390000
H        1.19770000       1.79280000       0.13850000
H       -0.47610000       2.05330000      -0.37460000
H       -0.11300000       1.69400000       1.32410000
H        0.65310000      -0.58590000       0.71070000
H       -2.09540000       0.02110000      -0.49300000
H       -1.47150000      -1.59120000      -0.17220000
H       -1.23900000      -0.97430000       2.28340000
H       -2.02470000       0.57320000       1.94180000
H       -3.40440000      -2.00730000       1.53470000
H       -5.27270000      -0.92510000       2.14990000
H        1.23690000      -0.80900000      -3.44350000
