19
Properties=species:S:1:pos:R:3 gdb_62165=T pbc="F F F"
C       -0.07680000       1.66120000       0.07460000
C       -0.10150000       0.13650000       0.10360000
C       -1.48150000      -0.44060000       0.41920000
O       -2.50400000       0.09980000      -0.40350000
C       -2.73580000      -0.51140000      -1.59090000
N       -3.57420000      -0.01150000      -2.38800000
O        0.27770000      -0.40350000      -1.17200000
C        1.59440000      -0.52850000      -1.42910000
N        1.98190000      -0.92740000      -2.56120000
H        0.92640000       2.02590000      -0.16250000
H       -0.77490000       2.03500000      -0.67690000
H       -0.36570000       2.06470000       1.05020000
H        0.59030000      -0.24260000       0.87100000
H       -1.44590000      -1.53360000       0.33170000
H       -1.75300000      -0.18330000       1.44700000
H       -2.14670000      -1.42370000      -1.73600000
H       -3.64800000      -0.59390000      -3.21960000
H        2.23350000      -0.27090000      -0.57240000
H        2.99770000      -0.98680000      -2.58090000
