18
Properties=species:S:1:pos:R:3 gdb_75277=T pbc="F F F"
C       -0.10300000       1.47090000       0.05080000
C       -0.01880000      -0.02190000      -0.01980000
C       -0.03360000      -0.78880000      -1.11410000
C        0.08270000      -2.26920000      -0.83430000
C        0.05820000      -2.33970000       0.70450000
C        0.08370000      -0.86990000       1.22990000
N       -1.19180000      -1.16500000       1.92320000
C       -1.34670000      -2.41520000       1.36040000
O       -2.24830000      -3.20870000       1.37540000
H        0.77550000       1.89380000       0.55480000
H       -0.17200000       1.91900000      -0.94380000
H       -0.97860000       1.79610000       0.62780000
H       -0.12380000      -0.40310000      -2.12530000
H       -0.73580000      -2.84650000      -1.28090000
H        1.01190000      -2.68380000      -1.24480000
H        0.77850000      -3.03140000       1.14130000
H        0.87850000      -0.56400000       1.91820000
H       -1.89920000      -0.54210000       2.28890000
