19
Properties=species:S:1:pos:R:3 gdb_92639=T pbc="F F F"
C        0.03950000       1.15050000      -0.51370000
N        0.08960000       0.08440000       0.46230000
C       -0.98400000      -0.91580000       0.70860000
C        0.14640000      -1.89160000       1.18950000
O        0.25870000      -3.19980000       0.69290000
C        1.40620000      -3.42300000      -0.14530000
C        2.58500000      -2.48230000       0.15300000
N        2.18190000      -1.07670000      -0.05040000
C        1.06120000      -0.90050000       0.51310000
H        1.00560000       1.65990000      -0.52950000
H       -0.16860000       0.77740000      -1.52830000
H       -0.73380000       1.87300000      -0.23770000
H       -1.74110000      -0.60600000       1.43380000
H       -1.45720000      -1.27170000      -0.21500000
H        0.21820000      -1.90500000       2.28280000
H        1.68930000      -4.46850000       0.01250000
H        1.11980000      -3.29770000      -1.19980000
H        2.95430000      -2.65490000       1.17450000
H        3.40610000      -2.71860000      -0.53070000
