18
Properties=species:S:1:pos:R:3 gdb_123478=T pbc="F F F"
C       -0.13070000       1.63340000       0.13030000
N       -0.21990000       0.26410000      -0.37590000
C       -0.22360000      -0.79720000       0.62840000
C       -1.46750000      -0.44210000      -0.10930000
C        1.30180000       2.06280000       0.21170000
C        1.97380000       2.95510000       1.02520000
C        3.30500000       2.93390000       0.55560000
N        3.46010000       2.09360000      -0.46420000
N        2.22780000       1.58640000      -0.65620000
H       -0.68400000       2.27560000      -0.56800000
H       -0.60550000       1.75640000       1.11870000
H        0.33290000      -1.69350000       0.37210000
H       -0.16010000      -0.50400000       1.67460000
H       -2.24180000       0.08580000       0.44500000
H       -1.83400000      -1.07400000      -0.91290000
H        1.56010000       3.53400000       1.83540000
H        4.15440000       3.49170000       0.92240000
H        2.06620000       0.87820000      -1.35330000
