18
Properties=species:S:1:pos:R:3 gdb_69672=T pbc="F F F"
C        0.20490000       1.59790000       0.04730000
C        0.04500000       0.11250000       0.12120000
C       -0.84450000      -0.61610000       1.08590000
C        0.62810000      -0.94000000       1.04410000
C        1.03890000      -1.70540000      -0.21820000
C       -0.00440000      -2.04390000      -1.22650000
C       -1.34690000      -2.53170000      -1.06960000
C       -2.44590000      -3.02290000      -1.07800000
N        0.50320000      -0.63950000      -1.13180000
H        1.19510000       1.86670000      -0.33340000
H       -0.54210000       2.03270000      -0.62740000
H        0.07510000       2.05080000       1.03490000
H       -1.11470000       0.00060000       1.93930000
H       -1.60720000      -1.32340000       0.79690000
H        1.28760000      -0.82580000       1.89420000
H        2.05140000      -2.07900000      -0.34800000
H        0.44620000      -2.47420000      -2.12200000
H       -3.42330000      -3.43720000      -1.04610000
