21
Properties=species:S:1:pos:R:3 gdb_126528=T pbc="F F F"
C       -0.05820000       1.59210000      -0.07280000
C       -0.02960000       0.06220000      -0.08360000
C       -1.43110000      -0.55900000       0.08890000
C       -1.43380000      -2.05590000       0.10660000
C       -1.38430000      -2.94450000       1.16680000
C       -1.37720000      -4.22050000       0.57390000
N       -1.42010000      -4.14750000      -0.75290000
N       -1.45280000      -2.82200000      -1.02140000
C       -1.51020000      -2.38750000      -2.40080000
H        0.94600000       2.00890000      -0.19630000
H       -0.68350000       1.98410000      -0.88290000
H       -0.46380000       1.97410000       0.87060000
H        0.41500000      -0.29320000      -1.02130000
H        0.61940000      -0.30860000       0.71810000
H       -1.86330000      -0.20470000       1.03140000
H       -2.09000000      -0.18630000      -0.70620000
H       -1.36510000      -2.69300000       2.21540000
H       -1.34890000      -5.18800000       1.05370000
H       -2.35620000      -1.71290000      -2.56500000
H       -0.58900000      -1.87710000      -2.70110000
H       -1.63940000      -3.28010000      -3.01150000
