16
Properties=species:S:1:pos:R:3 gdb_128787=T pbc="F F F"
C       -0.00120000       1.40450000       0.03120000
O       -0.00240000      -0.00490000      -0.00840000
C        0.65440000      -0.58570000       1.08860000
C        0.60370000      -2.08680000       0.96020000
C       -0.01290000      -2.74200000      -0.11170000
N       -0.02770000      -4.06700000      -0.17460000
C        0.57960000      -4.68220000       0.84510000
N        1.17870000      -4.10440000       1.88550000
N        1.18790000      -2.77650000       1.93890000
H        1.02240000       1.80900000       0.02080000
H       -0.53110000       1.75410000      -0.85730000
H       -0.51420000       1.78480000       0.92770000
H        1.70780000      -0.26360000       1.14400000
H        0.18590000      -0.28900000       2.04200000
H       -0.48860000      -2.18100000      -0.90850000
H        0.59350000      -5.76830000       0.83860000
