16
Properties=species:S:1:pos:R:3 gdb_27938=T pbc="F F F"
N        0.15100000       1.41470000      -0.13090000
C       -0.01770000       0.02070000      -0.03700000
C       -1.09580000      -0.80900000      -0.09260000
C       -0.60970000      -2.16580000      -0.03760000
C       -1.39780000      -3.36990000      -0.11070000
O       -2.60880000      -3.42150000      -0.21750000
C        0.77860000      -2.09480000       0.07670000
N        1.75050000      -3.07560000       0.25920000
N        1.12420000      -0.77670000       0.06790000
H       -0.67540000       1.84620000      -0.52610000
H        0.32220000       1.84840000       0.77250000
H       -2.13310000      -0.52510000      -0.16890000
H       -0.80480000      -4.31790000      -0.06770000
H        1.36030000      -4.00800000       0.24520000
H        2.51780000      -3.02050000      -0.40140000
H        2.06140000      -0.41510000       0.13200000
