21
Properties=species:S:1:pos:R:3 gdb_91382=T pbc="F F F"
C        0.71610000       1.26890000       0.45140000
C        0.05530000      -0.02180000      -0.03180000
C        0.68740000      -0.65260000      -1.29810000
C        1.54790000      -1.81090000      -0.77780000
C        2.97320000      -1.47230000      -0.24590000
C        2.51000000      -1.80780000       1.20370000
O        2.61090000      -0.80130000       2.18130000
C        1.05070000      -2.02990000       0.68220000
O        0.10030000      -1.03840000       0.98070000
H        1.76830000       1.11240000       0.69700000
H        0.63400000       2.04820000      -0.31450000
H        0.21700000       1.62360000       1.35770000
H       -1.00900000       0.18090000      -0.20360000
H       -0.09900000      -1.03760000      -1.95410000
H        1.26760000       0.07580000      -1.87210000
H        1.51210000      -2.68300000      -1.43190000
H        3.78000000      -2.09870000      -0.63520000
H        3.25520000      -0.42370000      -0.37480000
H        2.93980000      -2.75440000       1.56260000
H        3.53990000      -0.70750000       2.41530000
H        0.62330000      -3.00010000       0.95290000
