18
Properties=species:S:1:pos:R:3 gdb_71846=T pbc="F F F"
C        0.03690000       1.54780000      -0.04900000
C       -0.07400000       0.04670000      -0.06140000
N        0.32960000      -0.69020000      -1.28220000
C       -0.55090000      -1.83280000      -0.79700000
C        0.37470000      -2.70970000      -0.00200000
C        0.95070000      -2.07480000       1.02240000
C        0.35640000      -0.72060000       1.28100000
O       -1.07230000      -0.97110000       1.56470000
C       -1.32650000      -0.80390000       0.18050000
H        1.08420000       1.85700000      -0.13700000
H       -0.51770000       1.99340000      -0.88230000
H       -0.36570000       1.95650000       0.88280000
H       -0.14960000      -0.23640000      -2.06130000
H       -1.12160000      -2.34000000      -1.57470000
H        0.57820000      -3.73510000      -0.28790000
H        1.69990000      -2.50230000       1.67820000
H        0.82440000      -0.13210000       2.07140000
H       -2.36600000      -0.56550000      -0.06000000
