18
Properties=species:S:1:pos:R:3 gdb_78839=T pbc="F F F"
C        0.01630000       1.53810000       0.05900000
N        0.13880000       0.08750000       0.02010000
C        0.75240000      -0.55930000      -1.12780000
C        2.29140000      -0.64410000      -0.90450000
C        1.32910000      -1.65680000      -0.30300000
C        1.14640000      -0.60410000       0.85610000
C        2.56440000      -0.00820000       0.45970000
C        3.65820000      -0.71730000       1.20060000
O        4.51360000      -0.16960000       1.85210000
H        0.93270000       2.08430000      -0.21120000
H       -0.77390000       1.84070000      -0.63560000
H       -0.28720000       1.84460000       1.06510000
H        0.30800000      -0.58230000      -2.11500000
H        2.98860000      -0.78950000      -1.72000000
H        1.24630000      -2.73150000      -0.35460000
H        0.89540000      -0.77960000       1.90070000
H        2.71100000       1.07100000       0.54550000
H        3.62450000      -1.82830000       1.11450000
