21
Properties=species:S:1:pos:R:3 gdb_77701=T pbc="F F F"
C       -0.30760000       1.37620000      -0.04630000
C       -0.09690000      -0.13070000      -0.01600000
C        1.07300000      -0.70670000      -0.82000000
C        1.10110000      -1.41870000      -2.12840000
C        1.86750000      -0.11360000      -1.93560000
O        1.70940000      -1.25160000       0.34130000
C        0.66900000      -0.72310000       1.17120000
C        0.96400000      -0.15020000       2.51740000
C        0.18730000      -1.45580000       2.37560000
H        0.62760000       1.90930000       0.14780000
H       -0.68780000       1.69920000      -1.02150000
H       -1.03880000       1.68500000       0.70850000
H       -1.03790000      -0.65520000      -0.21120000
H        1.68050000      -2.33440000      -2.17870000
H        0.20790000      -1.41070000      -2.74550000
H        1.49920000       0.78300000      -2.42410000
H        2.94750000      -0.17710000      -1.85650000
H        1.98960000      -0.21590000       2.86440000
H        0.43160000       0.73970000       2.83780000
H       -0.87580000      -1.45470000       2.59590000
H        0.70420000      -2.37400000       2.63320000
