15
Properties=species:S:1:pos:R:3 gdb_128689=T pbc="F F F"
C       -0.00180000       1.35530000       0.03050000
O       -0.02460000      -0.06910000       0.05130000
C        0.62060000      -0.64520000       1.08590000
N        1.25100000       0.01910000       2.04180000
N        1.72720000      -0.96960000       2.85850000
C        1.40100000      -2.20760000       2.41850000
O        1.79150000      -3.30650000       3.09890000
C        0.67520000      -2.04580000       1.26040000
O        0.16110000      -3.06010000       0.49460000
H        1.02590000       1.72810000      -0.03000000
H       -0.56400000       1.65340000      -0.85560000
H       -0.46820000       1.76650000       0.93180000
H        2.27820000      -0.73460000       3.66380000
H        1.44170000      -4.07660000       2.63580000
H       -0.41610000      -2.66160000      -0.16500000
