18
Properties=species:S:1:pos:R:3 gdb_52588=T pbc="F F F"
C        0.19600000       1.39400000       0.02430000
C        0.08980000      -0.05720000       0.00350000
C       -0.00770000      -1.25560000      -0.02180000
C       -0.10400000      -2.71920000      -0.03480000
C       -1.49760000      -3.17370000       0.05920000
C       -2.62740000      -3.56770000       0.15580000
N        0.51610000      -3.26240000      -1.25980000
C        1.96380000      -3.44140000      -1.18940000
C        1.05060000      -4.61610000      -1.13370000
H        0.86340000       1.73500000       0.82330000
H        0.59100000       1.77340000      -0.92440000
H       -0.78260000       1.85890000       0.18580000
H        0.42520000      -3.09940000       0.86210000
H       -3.63130000      -3.90510000       0.23360000
H        2.50780000      -3.20110000      -2.09760000
H        2.46950000      -3.15830000      -0.26780000
H        0.94450000      -5.12060000      -0.17480000
H        0.91060000      -5.25490000      -2.00020000
