15
Properties=species:S:1:pos:R:3 gdb_131673=T pbc="F F F"
O        0.24380000       1.09780000       0.76550000
C        0.00830000       0.11110000      -0.22580000
C       -1.36290000      -0.49260000      -0.12960000
C       -2.16950000      -0.54100000       0.97430000
N       -3.32420000      -1.19100000       0.60130000
C       -4.42180000      -1.44420000       1.43830000
O       -5.42430000      -2.00590000       1.10920000
N       -3.29950000      -1.56850000      -0.70570000
C       -2.12830000      -1.14910000      -1.14150000
H       -0.37840000       1.81700000       0.61240000
H        0.17220000       0.50370000      -1.24130000
H        0.77640000      -0.65350000      -0.06030000
H       -2.02320000      -0.17460000       1.97760000
H       -4.22610000      -1.04860000       2.45230000
H       -1.85150000      -1.32240000      -2.17270000
