21
Properties=species:S:1:pos:R:3 gdb_64450=T pbc="F F F"
C        0.09790000       1.50920000      -0.08890000
C       -0.00580000      -0.01050000       0.01080000
C       -1.48220000      -0.45000000       0.08700000
O        0.62280000      -0.51060000      -1.18010000
C        0.88530000      -1.90210000      -1.23050000
C        1.84400000      -2.31840000      -0.11970000
C        1.23800000      -1.94900000       1.24230000
C        0.72280000      -0.51630000       1.27830000
O        0.83250000       0.17840000       2.26160000
H        1.14260000       1.80770000      -0.20450000
H       -0.46180000       1.86000000      -0.95990000
H       -0.29740000       1.97670000       0.81370000
H       -1.99810000      -0.13110000      -0.82340000
H       -1.59460000      -1.53360000       0.18160000
H       -1.96890000       0.01320000       0.94970000
H       -0.04530000      -2.48900000      -1.17040000
H        1.32060000      -2.08110000      -2.21800000
H        2.05040000      -3.39320000      -0.17250000
H        2.79590000      -1.79360000      -0.25950000
H        0.37470000      -2.60120000       1.44070000
H        1.93540000      -2.08010000       2.07330000
