18
Properties=species:S:1:pos:R:3 gdb_33144=T pbc="F F F"
N        0.44540000       1.42280000       0.31270000
C        0.21400000       0.05860000       0.10690000
C       -0.99210000      -0.56120000      -0.04910000
O       -0.82620000      -1.91480000      -0.17590000
C        0.49970000      -2.15000000      -0.08320000
C        1.20650000      -0.99710000       0.08150000
C        2.70540000      -0.90390000       0.14380000
C        3.29350000      -0.26010000       1.40230000
O        3.20410000       1.16010000       1.27190000
H        1.43070000       1.65220000       0.35050000
H       -0.06430000       2.02800000      -0.31480000
H       -2.00620000      -0.20220000      -0.09060000
H        0.80630000      -3.18070000      -0.16930000
H        3.11560000      -1.91640000       0.05720000
H        3.09810000      -0.33990000      -0.71370000
H        2.75340000      -0.60990000       2.29180000
H        4.34830000      -0.55510000       1.50510000
H        3.25050000       1.55360000       2.14780000
