22
Properties=species:S:1:pos:R:3 gdb_99874=T pbc="F F F"
C       -0.02450000       1.47170000       0.14120000
N        0.00150000       0.02030000      -0.03680000
C        0.63050000      -0.47930000      -1.26190000
C       -0.08270000       0.05930000      -2.51370000
C        2.06400000      -0.07000000      -1.31280000
N        3.17700000       0.24580000      -1.28620000
C        0.60670000      -2.04550000      -1.20720000
C       -0.81640000      -2.60330000      -1.23300000
N        1.36470000      -2.58190000      -2.33610000
H        0.96110000       1.95340000       0.04190000
H       -0.70440000       1.92860000      -0.58280000
H       -0.41380000       1.68870000       1.13930000
H        0.46720000      -0.40290000       0.76010000
H        0.13200000       1.11770000      -2.67360000
H        0.25640000      -0.50210000      -3.38580000
H       -1.16150000      -0.06400000      -2.39520000
H        1.05540000      -2.30940000      -0.23170000
H       -1.26540000      -2.47880000      -2.22220000
H       -0.79920000      -3.67440000      -1.00520000
H       -1.43960000      -2.10120000      -0.49140000
H        2.35830000      -2.40550000      -2.22130000
H        1.24430000      -3.58800000      -2.38430000
