16
Properties=species:S:1:pos:R:3 gdb_65182=T pbc="F F F"
O        0.86200000       0.30040000      -1.71400000
C        0.22710000      -0.19600000      -0.56800000
C        1.10310000      -0.96550000       0.37560000
C        0.55960000       0.38980000       0.77720000
C       -1.15260000      -0.70690000      -0.86320000
O       -2.06790000      -0.84270000       0.21890000
C       -2.36290000       0.14540000      -0.77030000
C       -2.27220000       1.53490000      -0.37570000
N       -2.21580000       2.65850000      -0.10980000
H        0.52370000       1.18840000      -1.88040000
H        0.69040000      -1.84450000       0.85810000
H        2.14950000      -1.03170000       0.10230000
H        1.24650000       1.22800000       0.77830000
H       -0.22020000       0.42420000       1.52800000
H       -1.19580000      -1.51130000      -1.59900000
H       -3.21900000      -0.08060000      -1.40300000
