23
Properties=species:S:1:pos:R:3 gdb_88685=T pbc="F F F"
C       -0.03510000       1.46670000      -0.18640000
C       -0.10780000      -0.00400000       0.13600000
O        1.10650000      -0.75860000       0.06240000
C        0.45980000      -0.63780000       1.34100000
C        1.18740000       0.09070000       2.41820000
C        0.73020000      -0.03260000       3.85960000
C        2.05520000      -0.62250000       3.44360000
C        2.20330000      -2.13230000       3.40360000
C        3.31610000       0.10160000       3.87870000
H        0.83180000       1.94340000       0.27500000
H        0.03970000       1.61010000      -1.26950000
H       -0.94110000       1.97810000       0.15680000
H       -0.96160000      -0.51390000      -0.31790000
H       -0.02420000      -1.56080000       1.66500000
H        1.55570000       1.06760000       2.12240000
H        0.71940000       0.86360000       4.47120000
H       -0.08620000      -0.71800000       4.06710000
H        1.26990000      -2.63880000       3.14590000
H        2.95980000      -2.43500000       2.67070000
H        2.51980000      -2.50930000       4.38320000
H        3.62070000      -0.21020000       4.88500000
H        4.14800000      -0.11350000       3.19810000
H        3.17050000       1.18640000       3.89620000
