21
Properties=species:S:1:pos:R:3 gdb_107327=T pbc="F F F"
C        0.00890000       1.49760000       0.33880000
C       -0.04090000       0.03810000      -0.13420000
C       -1.44130000      -0.53740000      -0.13660000
C       -2.02510000      -1.05740000       1.16040000
C       -1.73190000      -2.01520000       0.01780000
C       -2.90990000      -2.29500000      -0.85840000
C       -3.32910000      -1.19180000      -1.47990000
C       -2.44900000       0.00650000      -1.16670000
O       -3.16590000       1.16800000      -0.76020000
H        1.02590000       1.89680000       0.27520000
H       -0.64950000       2.12990000      -0.26310000
H       -0.32180000       1.58080000       1.37970000
H        0.37610000      -0.03410000      -1.14780000
H        0.60500000      -0.57790000       0.50420000
H       -1.35610000      -1.06930000       2.01580000
H       -3.06790000      -0.88320000       1.41040000
H       -0.94020000      -2.74750000       0.13340000
H       -3.37160000      -3.27430000      -0.92500000
H       -4.19840000      -1.10330000      -2.12110000
H       -1.91120000       0.33710000      -2.06580000
H       -3.60450000       0.95580000       0.07140000
