18
Properties=species:S:1:pos:R:3 gdb_13598=T pbc="F F F"
C       -0.33440000       1.69800000      -0.12130000
C       -0.42420000       0.18950000      -0.33180000
C        0.82450000      -0.41080000      -0.96090000
O        1.75110000       0.26400000      -1.34820000
C        0.82630000      -1.91580000      -1.05230000
O        1.71690000      -2.52500000      -1.98140000
C        1.99000000      -2.72970000      -0.60360000
C        3.26560000      -2.15430000      -0.04900000
H        0.49120000       1.95040000       0.54950000
H       -0.15000000       2.21030000      -1.06850000
H       -1.26160000       2.08460000       0.31030000
H       -0.61810000      -0.33980000       0.61230000
H       -1.27460000      -0.07100000      -0.97880000
H       -0.15920000      -2.38100000      -0.99390000
H        1.74030000      -3.73420000      -0.25310000
H        3.42910000      -1.14240000      -0.42020000
H        3.23250000      -2.14260000       1.04580000
H        4.11130000      -2.78130000      -0.35040000
