19
Properties=species:S:1:pos:R:3 gdb_113744=T pbc="F F F"
N       -0.32880000       1.37410000       0.22780000
C        0.03480000      -0.00980000      -0.09100000
C        0.79690000      -0.13130000      -1.35820000
N        1.38950000      -0.18700000      -2.35000000
C        0.82100000      -0.62450000       1.05590000
C        0.10010000      -1.23540000       2.22780000
C        0.89980000      -2.11450000       1.30010000
C        0.22490000      -3.13160000       0.41530000
O        0.02860000      -4.30570000       1.19100000
H        0.51440000       1.92830000       0.35230000
H       -0.83090000       1.79010000      -0.55170000
H       -0.89910000      -0.56550000      -0.22740000
H        1.73210000      -0.07260000       1.27420000
H        0.47490000      -1.04290000       3.22630000
H       -0.98180000      -1.29810000       2.16400000
H        1.85510000      -2.46570000       1.67930000
H       -0.73700000      -2.74430000       0.04270000
H        0.85550000      -3.33680000      -0.46340000
H       -0.27610000      -5.00360000       0.60330000
