15
Properties=species:S:1:pos:R:3 gdb_18819=T pbc="F F F"
O        0.01350000       0.00770000       0.13880000
C       -0.00190000       1.20240000       0.01290000
C       -1.24660000       2.11200000      -0.05630000
N       -0.77470000       3.43550000      -0.47420000
C        0.26630000       4.08280000       0.33990000
C        1.07530000       3.09160000       1.18490000
C        1.17380000       2.16160000      -0.08300000
C        0.61820000       3.35070000      -0.91520000
H       -1.95120000       1.72620000      -0.79990000
H       -1.76480000       2.14030000       0.90770000
H        0.15430000       5.14480000       0.52460000
H        2.05780000       3.49810000       1.43370000
H        0.62060000       2.67710000       2.09080000
H        2.13390000       1.70420000      -0.30440000
H        0.91410000       3.68470000      -1.90180000
