23
Properties=species:S:1:pos:R:3 gdb_109351=T pbc="F F F"
C        0.20140000       1.59020000      -0.16510000
C       -0.14360000       0.10610000       0.05210000
C        0.58590000      -0.52420000       1.22170000
C       -0.10970000      -0.94240000       2.28490000
C        0.34580000      -1.54790000       3.58840000
C        1.84010000      -1.41300000       3.92430000
C        2.72230000      -2.13030000       2.93580000
C        2.81720000      -1.77320000       1.65780000
C        2.09860000      -0.59250000       1.04450000
H        1.26750000       1.73430000      -0.36780000
H       -0.35370000       1.99760000      -1.01620000
H       -0.05300000       2.18120000       0.72080000
H       -1.22430000       0.00850000       0.20110000
H        0.09730000      -0.44750000      -0.86720000
H       -1.19270000      -0.83050000       2.22380000
H       -0.24020000      -1.08490000       4.39480000
H        0.06720000      -2.61240000       3.60690000
H        2.09800000      -0.34510000       3.95130000
H        2.01280000      -1.79750000       4.93450000
H        3.28330000      -2.99120000       3.29100000
H        3.46490000      -2.34010000       0.99360000
H        2.30810000      -0.57700000      -0.03090000
H        2.54650000       0.33970000       1.42560000
