17
Properties=species:S:1:pos:R:3 gdb_46813=T pbc="F F F"
O        0.01390000       0.00710000       0.08270000
C       -0.01270000       1.20480000      -0.01660000
C       -1.27610000       2.06660000      -0.16910000
C       -0.81440000       3.36590000      -0.85750000
C        0.67660000       3.48440000      -0.55010000
C        1.09350000       3.32970000       0.86820000
C        1.19310000       2.11640000      -0.07680000
C        2.47560000       1.58660000      -0.41380000
C        3.55340000       1.13820000      -0.70160000
H       -2.02880000       1.51140000      -0.73120000
H       -1.69800000       2.24900000       0.82620000
H       -0.95460000       3.28750000      -1.94020000
H       -1.37030000       4.24640000      -0.52000000
H        1.30220000       4.07310000      -1.21020000
H        2.04970000       3.74190000       1.16630000
H        0.34610000       3.30510000       1.65470000
H        4.50170000       0.73340000      -0.95460000
