22
Properties=species:S:1:pos:R:3 gdb_61216=T pbc="F F F"
C        0.22440000       1.33150000      -0.61780000
C        0.01320000      -0.07060000      -0.03380000
C        0.61360000      -0.15540000       1.39800000
C        2.05630000       0.07090000       1.43120000
N        3.19850000       0.24920000       1.43790000
C       -1.44200000      -0.56280000      -0.00240000
C       -1.57830000      -2.07300000       0.11180000
C       -2.49560000       0.27180000       0.69300000
C       -2.51390000       0.13330000      -0.80960000
H        1.27950000       1.61240000      -0.55510000
H       -0.06580000       1.36890000      -1.67040000
H       -0.35130000       2.09170000      -0.07770000
H        0.57750000      -0.77470000      -0.65880000
H        0.12850000       0.58480000       2.04490000
H        0.41570000      -1.13600000       1.84150000
H       -1.10440000      -2.46900000       1.01730000
H       -2.63090000      -2.36950000       0.14480000
H       -1.11840000      -2.57440000      -0.74780000
H       -3.25380000      -0.24260000       1.27400000
H       -2.21160000       1.23710000       1.09920000
H       -2.25680000       1.00600000      -1.39660000
H       -3.28060000      -0.48850000      -1.25950000
