15
Properties=species:S:1:pos:R:3 gdb_4937=T pbc="F F F"
N        0.24270000       1.34540000       0.34690000
C       -0.05730000       0.01360000       0.10140000
C       -1.17710000      -0.74610000       0.27000000
C       -0.79580000      -2.08990000      -0.08560000
C       -1.65980000      -3.31570000      -0.07480000
O       -1.12110000      -4.37830000      -0.84550000
C        0.51080000      -2.03310000      -0.44510000
O        0.97690000      -0.74040000      -0.33410000
H        0.96290000       1.70270000      -0.26790000
H       -0.57280000       1.94160000       0.33070000
H       -2.14550000      -0.40480000       0.59990000
H       -1.75530000      -3.71330000       0.94300000
H       -2.67930000      -3.05380000      -0.40330000
H       -0.97850000      -4.03560000      -1.73450000
H        1.22790000      -2.76420000      -0.77260000
