22
Properties=species:S:1:pos:R:3 gdb_60620=T pbc="F F F"
C       -0.60310000       1.22800000       0.20330000
C       -0.02550000      -0.16480000       0.09070000
C        1.40180000      -0.34430000      -0.35610000
C        1.02590000      -0.67480000       1.06560000
N        1.51700000       0.13610000       2.14740000
C        2.86930000       0.67960000       2.07450000
C        0.84420000       0.22650000       3.35040000
C       -0.47960000      -0.51650000       3.44460000
O        1.28950000       0.84920000       4.29940000
H        0.12290000       1.92640000       0.62860000
H       -0.89570000       1.60540000      -0.78220000
H       -1.49300000       1.24770000       0.84130000
H       -0.72910000      -0.92130000      -0.24730000
H        1.66050000      -1.16670000      -1.01350000
H        1.97700000       0.55830000      -0.53020000
H        0.97430000      -1.73900000       1.29220000
H        2.93040000       1.53090000       1.38700000
H        3.14250000       1.01870000       3.07260000
H        3.57250000      -0.08830000       1.73580000
H       -1.18300000      -0.20990000       2.66750000
H       -0.33120000      -1.59670000       3.33950000
H       -0.90360000      -0.30980000       4.42650000
