17
Properties=species:S:1:pos:R:3 gdb_36440=T pbc="F F F"
N        0.00730000      -1.00080000      -0.62190000
C        0.01670000       0.12340000      -0.35530000
C        0.02590000       1.54030000      -0.00420000
C        1.43780000       2.09560000       0.16380000
O        2.22690000       2.03200000      -1.05110000
C        2.57440000       3.42820000      -0.96580000
C        1.65170000       4.35160000      -1.78590000
N        0.65200000       4.33350000      -0.67340000
C        1.60260000       3.63150000       0.22160000
H       -0.49080000       2.12480000      -0.77090000
H       -0.52510000       1.67380000       0.93500000
H        1.96050000       1.57850000       0.97920000
H        3.65230000       3.59690000      -0.97510000
H        2.09860000       5.33680000      -1.96760000
H        1.28210000       3.93920000      -2.72930000
H        0.38470000       5.25270000      -0.34540000
H        1.83020000       4.09950000       1.17970000
