16
Properties=species:S:1:pos:R:3 gdb_1781=T pbc="F F F"
C       -0.21580000       1.44120000      -0.06460000
N        0.02460000       0.01130000       0.07300000
C        1.35390000      -0.49260000      -0.17690000
C        0.80190000      -0.48390000       1.22720000
C        1.39610000       0.41670000       2.28740000
C        0.25880000      -1.78820000       1.72310000
O        0.40770000      -2.20790000       2.84320000
H        0.65360000       2.07490000       0.16330000
H       -0.51650000       1.63900000      -1.09810000
H       -1.04140000       1.73490000       0.59040000
H        1.42360000      -1.41540000      -0.74870000
H        2.15750000       0.22030000      -0.36240000
H        1.92050000       1.27240000       1.85940000
H        0.62030000       0.78510000       2.96620000
H        2.10430000      -0.15750000       2.88980000
H       -0.30960000      -2.34970000       0.94900000
