19
Properties=species:S:1:pos:R:3 gdb_78567=T pbc="F F F"
C        0.10950000       1.63200000       0.01580000
C        0.07810000       0.11040000       0.00150000
C        0.76930000      -0.68320000      -1.11870000
C        2.26760000      -0.78560000      -0.77420000
C        2.42710000      -0.22930000       0.60160000
O        3.36100000       0.17080000       1.24120000
C        1.00290000      -0.68720000       0.97180000
C        1.21210000      -1.76050000      -0.18620000
C        1.19090000      -3.25260000      -0.19160000
H        1.12900000       2.01440000      -0.09640000
H       -0.49590000       2.04170000      -0.79990000
H       -0.29180000       2.02280000       0.95700000
H       -0.94980000      -0.25520000       0.10260000
H        0.46530000      -0.78540000      -2.15450000
H        3.01900000      -0.99520000      -1.52350000
H        0.73370000      -0.87990000       2.00740000
H        0.20200000      -3.63710000       0.08200000
H        1.43660000      -3.64050000      -1.18540000
H        1.91760000      -3.66380000       0.51740000
