19
Properties=species:S:1:pos:R:3 gdb_113097=T pbc="F F F"
O       -0.04130000       1.32170000      -0.51730000
C       -0.04430000      -0.07160000      -0.28670000
C       -1.43680000      -0.56510000       0.11570000
O       -2.36340000      -0.24140000      -0.93750000
C       -3.02670000      -1.42730000      -1.41350000
C       -2.78160000      -1.55600000      -2.91940000
O       -3.26240000      -0.42510000      -3.61530000
C       -2.45220000      -2.53690000      -0.57940000
C       -1.56070000      -2.05350000       0.27800000
H       -0.76040000       1.49130000      -1.13670000
H        0.28970000      -0.63530000      -1.17270000
H        0.66740000      -0.26210000       0.52440000
H       -1.74130000      -0.01830000       1.02200000
H       -4.10960000      -1.30260000      -1.25580000
H       -1.70510000      -1.71700000      -3.09120000
H       -3.32130000      -2.42510000      -3.31180000
H       -2.87940000       0.34220000      -3.17470000
H       -2.75120000      -3.57140000      -0.69160000
H       -0.98740000      -2.61490000       1.00490000
