17
Properties=species:S:1:pos:R:3 gdb_1861=T pbc="F F F"
C        0.26090000       1.41280000       0.09450000
C       -0.00850000      -0.05600000       0.01160000
C        0.02380000      -0.82880000      -1.07590000
C       -0.33820000      -2.26140000      -0.77760000
C       -0.29780000      -2.32840000       0.77350000
O        0.95370000      -2.81400000       1.25050000
C       -0.40100000      -0.85990000       1.23340000
H        1.09140000       1.62390000       0.78020000
H        0.51050000       1.83460000      -0.88300000
H       -0.60930000       1.95520000       0.48670000
H        0.25880000      -0.47830000      -2.07570000
H       -1.33640000      -2.51350000      -1.16380000
H        0.35710000      -2.98830000      -1.21810000
H       -1.11610000      -2.94300000       1.17420000
H        1.07780000      -3.70200000       0.90070000
H        0.25750000      -0.69280000       2.09310000
H       -1.41990000      -0.60760000       1.55840000
