18
Properties=species:S:1:pos:R:3 gdb_78916=T pbc="F F F"
O       -0.05480000       1.46670000       0.08000000
C        0.00080000       0.05090000       0.03080000
C       -1.37220000      -0.53270000      -0.19640000
C       -1.63260000      -0.57090000      -1.69650000
C       -1.17510000      -1.81450000      -0.95920000
N        0.25360000      -1.96940000      -1.37320000
C        0.13930000      -1.68960000      -2.86440000
C       -0.32400000      -0.26710000      -2.45020000
C        0.63070000      -0.49290000      -1.24460000
H        0.83680000       1.79430000       0.23480000
H        0.47740000      -0.36660000       0.93000000
H       -2.17540000      -0.41130000       0.51940000
H       -2.61440000      -0.43940000      -2.12920000
H       -1.75780000      -2.71320000      -0.81150000
H        1.12850000      -1.72610000      -3.32940000
H       -0.55780000      -2.33840000      -3.40180000
H       -0.28630000       0.60720000      -3.09990000
H        1.69610000      -0.32770000      -1.40540000
