15
Properties=species:S:1:pos:R:3 gdb_79385=T pbc="F F F"
O       -0.03560000       1.51050000      -0.04200000
C        0.06830000       0.10680000      -0.02810000
C        0.07070000      -0.59890000       1.34570000
C       -1.46770000      -0.39060000       1.51490000
O       -1.75240000      -1.79200000       1.79550000
C       -0.71380000      -1.83020000       0.76160000
C       -0.22030000      -3.07380000       0.26550000
C        0.20790000      -4.11250000      -0.16290000
C       -1.29280000      -0.59600000      -0.02280000
H        0.84570000       1.88230000       0.06320000
H        0.79810000      -0.26260000      -0.75970000
H        0.82450000      -0.63590000       2.13170000
H       -2.01580000       0.37240000       2.05990000
H        0.58030000      -5.03410000      -0.53750000
H       -2.07320000      -0.62360000      -0.78160000
