14
Properties=species:S:1:pos:R:3 gdb_26774=T pbc="F F F"
C        0.17280000       1.47670000      -0.03070000
C       -0.03390000       0.00920000      -0.00830000
C       -1.12820000      -0.81030000       0.10500000
N       -2.46570000      -0.48370000       0.28900000
N       -0.72110000      -2.12530000       0.08330000
C        0.57430000      -2.06100000      -0.04350000
O        1.06500000      -0.80600000      -0.11420000
C        1.49020000      -3.13930000      -0.11520000
N        2.24090000      -4.01820000      -0.17650000
H        0.95350000       1.77640000       0.67640000
H        0.46680000       1.84190000      -1.02220000
H       -0.75270000       1.98150000       0.25800000
H       -2.78390000       0.30380000      -0.25800000
H       -3.06460000      -1.28630000       0.14870000
