15
Properties=species:S:1:pos:R:3 gdb_124080=T pbc="F F F"
C        0.40110000       1.54220000       0.62060000
O        1.72120000       1.11030000       0.24430000
C        1.23020000      -0.17460000      -0.17780000
C       -0.24520000       0.27340000       0.00260000
C       -1.14330000      -0.55260000       0.84550000
N       -0.84690000      -0.98020000       2.07150000
N       -1.94490000      -1.65340000       2.38000000
N       -2.87530000      -1.66430000       1.43820000
N       -2.37920000      -0.96560000       0.45110000
H        0.28420000       1.61470000       1.70890000
H        0.12840000       2.49660000       0.15720000
H        1.53730000      -0.42160000      -1.19980000
H        1.53630000      -0.97860000       0.50300000
H       -0.74950000       0.46950000      -0.94340000
H       -2.06800000      -2.12460000       3.26420000
