17
Properties=species:S:1:pos:R:3 gdb_32138=T pbc="F F F"
C       -0.01650000       1.40550000       0.07430000
O       -0.02830000      -0.02370000       0.03330000
C       -1.22330000      -0.62790000       0.01440000
C       -1.24280000      -2.03040000      -0.02560000
C       -2.49430000      -2.60590000      -0.04370000
N       -3.63580000      -1.89590000      -0.02500000
C       -3.49810000      -0.57220000       0.01290000
C       -4.74780000       0.26330000       0.03500000
N       -2.33100000       0.09700000       0.03360000
H        1.03760000       1.68500000       0.08420000
H       -0.51500000       1.82710000      -0.80240000
H       -0.51820000       1.77630000       0.97190000
H       -0.32620000      -2.60490000      -0.04070000
H       -2.60430000      -3.68750000      -0.07470000
H       -4.76890000       0.89010000       0.93230000
H       -4.76660000       0.94000000      -0.82540000
H       -5.62970000      -0.37670000       0.01560000
