14
Properties=species:S:1:pos:R:3 gdb_67325=T pbc="F F F"
O       -0.06180000       1.34360000      -0.05830000
C        0.03890000      -0.01460000      -0.04430000
C        0.34900000      -1.00790000       1.14360000
O       -1.01990000      -1.01900000       1.62610000
C       -1.15940000      -0.98520000       0.17740000
C        0.05540000      -1.93260000      -0.07370000
C        0.72380000      -0.96640000      -1.08470000
C        0.21880000      -0.95420000      -2.44620000
N       -0.19420000      -0.93820000      -3.52630000
H        0.81440000       1.73750000       0.02170000
H        1.16930000      -1.03210000       1.85990000
H       -2.15280000      -0.98380000      -0.26560000
H        0.04700000      -3.01800000      -0.08410000
H        1.81770000      -0.96460000      -1.07990000
