14
Properties=species:S:1:pos:R:3 gdb_2650=T pbc="F F F"
C       -0.27030000       0.98910000       0.40540000
C       -0.07340000      -0.37150000      -0.07070000
C        0.08790000      -1.49510000      -0.47160000
C        0.26780000      -2.86110000      -0.94980000
O       -0.94940000      -3.61760000      -0.98960000
C       -1.45650000      -3.97880000       0.20820000
N       -2.53740000      -4.62660000       0.26090000
H        0.26600000       1.16670000       1.34380000
H        0.08520000       1.72070000      -0.32810000
H       -1.33220000       1.18870000       0.58490000
H        0.63010000      -2.86640000      -1.98150000
H        1.01440000      -3.38760000      -0.33870000
H       -0.84240000      -3.65920000       1.06080000
H       -2.77170000      -4.83090000       1.23020000
