25
Properties=species:S:1:pos:R:3 gdb_84877=T pbc="F F F"
C       -0.17310000       1.53490000      -0.06920000
C        0.03260000       0.00630000      -0.00750000
C        0.73470000      -0.45110000      -1.26670000
C        1.98800000      -0.89990000      -1.31910000
C        2.86450000      -1.04220000      -0.10560000
C        2.28270000      -0.30690000       1.10980000
C        0.75920000      -0.51420000       1.27260000
C        0.28360000       0.22180000       2.53600000
C        0.44030000      -2.01400000       1.44550000
H        0.77830000       2.07100000       0.00860000
H       -0.62390000       1.81450000      -1.02720000
H       -0.83570000       1.89120000       0.72390000
H       -0.97300000      -0.44090000      -0.00840000
H        0.15840000      -0.36720000      -2.18660000
H        2.41250000      -1.20060000      -2.27460000
H        3.00120000      -2.10990000       0.12150000
H        3.87170000      -0.66510000      -0.32460000
H        2.79580000      -0.62770000       2.02440000
H        2.48320000       0.76670000       1.00590000
H        0.57220000       1.27690000       2.53140000
H       -0.80630000       0.17090000       2.64190000
H        0.72290000      -0.23630000       3.42920000
H        1.02140000      -2.44520000       2.26850000
H       -0.62040000      -2.15630000       1.68010000
H        0.65720000      -2.58570000       0.53950000
