17
Properties=species:S:1:pos:R:3 gdb_3469=T pbc="F F F"
C       -0.18860000       1.62980000      -0.01970000
C        0.02480000       0.12580000       0.02030000
C        1.17580000      -0.59870000      -0.72730000
C        2.46620000       0.09280000      -0.23850000
C        2.12780000       0.08540000       1.28690000
C        0.75320000      -0.60800000       1.17780000
O        1.04170000      -1.69010000       0.23710000
H        0.72540000       2.19330000       0.18640000
H       -0.55540000       1.94120000      -1.00390000
H       -0.93870000       1.93270000       0.71900000
H       -0.90510000      -0.40950000      -0.18850000
H        1.10760000      -0.91260000      -1.76940000
H        3.34600000      -0.50770000      -0.47720000
H        2.60680000       1.09390000      -0.65510000
H        2.82540000      -0.51920000       1.86970000
H        2.07690000       1.08220000       1.73330000
H        0.25140000      -0.93150000       2.09040000
