19
Properties=species:S:1:pos:R:3 gdb_79475=T pbc="F F F"
C       -0.16060000       1.59720000      -0.00100000
C       -0.03300000       0.08300000       0.00050000
C        1.18680000      -0.59160000      -0.66180000
C        2.13500000      -0.30000000       0.55460000
C        2.57990000      -1.77070000       0.65770000
C        1.09310000      -1.84930000       0.26810000
C        0.71050000      -0.61270000       1.17540000
C        0.36490000      -0.63690000       2.56400000
C        0.06030000      -0.64360000       3.72890000
H        0.79180000       2.08460000       0.23140000
H       -0.49190000       1.96050000      -0.98000000
H       -0.89460000       1.92770000       0.74160000
H       -0.99150000      -0.39270000      -0.24300000
H        1.48430000      -0.59910000      -1.71090000
H        2.71610000       0.60500000       0.73150000
H        3.29950000      -2.11560000      -0.09130000
H        2.84890000      -2.13480000       1.65330000
H        0.45720000      -2.72150000       0.10900000
H       -0.20530000      -0.65200000       4.75680000
