19
Properties=species:S:1:pos:R:3 gdb_76309=T pbc="F F F"
C        0.14520000       1.59000000       0.07760000
C        0.07510000       0.08350000      -0.07650000
C        0.75660000      -0.60300000      -1.30070000
O        1.78970000       0.09900000      -1.92360000
C        1.19860000      -1.69630000      -0.26380000
C        2.55940000      -2.21950000      -0.34790000
N        3.64410000      -2.61200000      -0.41900000
N        0.96340000      -0.71080000       0.80510000
C        0.47630000      -1.18260000       2.08420000
H        1.16240000       1.95710000      -0.07940000
H       -0.51250000       2.08030000      -0.64680000
H       -0.17540000       1.89040000       1.08040000
H       -0.97310000      -0.25840000      -0.00570000
H        0.09450000      -0.95190000      -2.09300000
H        2.45190000       0.33190000      -1.26190000
H        0.48750000      -2.53950000      -0.25430000
H        1.23850000      -1.80390000       2.56460000
H        0.27850000      -0.32890000       2.73920000
H       -0.45290000      -1.77560000       1.99710000
