19
Properties=species:S:1:pos:R:3 gdb_106138=T pbc="F F F"
C       -0.16170000       1.43150000       0.07430000
C        0.00440000      -0.05460000      -0.03860000
C        1.01480000      -0.83870000      -0.88210000
C        0.18160000      -2.08620000      -0.49990000
O        0.41390000      -2.22530000       0.93240000
C       -0.36450000      -1.04120000       1.08630000
C       -1.06020000      -1.14510000      -0.23880000
C       -2.48780000      -1.14540000      -0.66680000
O       -3.17420000      -2.33890000      -0.31450000
H        0.72310000       1.88860000       0.53220000
H       -0.30790000       1.89810000      -0.90640000
H       -1.02540000       1.69250000       0.69590000
H        0.91970000      -0.59350000      -1.94380000
H        2.06780000      -0.84710000      -0.58130000
H        0.21700000      -3.02860000      -1.04150000
H       -0.69940000      -0.74930000       2.07460000
H       -2.98630000      -0.25300000      -0.25200000
H       -2.56840000      -1.07470000      -1.75780000
H       -3.00460000      -2.50120000       0.61970000
