18
Properties=species:S:1:pos:R:3 gdb_105429=T pbc="F F F"
C       -0.00560000       1.57230000       0.07990000
C       -0.03630000       0.05230000      -0.09350000
C        0.77910000      -0.48730000      -1.29350000
C        0.57470000      -2.04150000      -1.47420000
N       -0.39150000      -2.19810000      -2.56670000
C       -0.50140000      -1.05070000      -3.11000000
N        0.26910000      -0.01930000      -2.59340000
C        2.19870000      -0.13790000      -1.13590000
N        3.31110000       0.13210000      -0.97600000
H        1.01820000       1.93690000       0.20630000
H       -0.44850000       2.09430000      -0.77580000
H       -0.57970000       1.86540000       0.96310000
H        0.35130000      -0.43030000       0.81100000
H       -1.06560000      -0.30040000      -0.22650000
H        1.51550000      -2.53430000      -1.74100000
H        0.20680000      -2.49860000      -0.55110000
H       -1.13000000      -0.85080000      -3.97300000
H       -0.05320000       0.93420000      -2.67010000
