22
Properties=species:S:1:pos:R:3 gdb_22825=T pbc="F F F"
C       -0.11950000       1.54390000       0.02010000
C        0.05710000       0.02470000       0.04610000
C        0.77600000      -0.49270000      -1.22190000
C        0.95200000      -2.01630000      -1.21270000
C        1.69920000      -2.48150000       0.04270000
C        1.00360000      -1.99000000       1.32770000
C        0.77490000      -0.49830000       1.27560000
N        1.14320000       0.35150000       2.15490000
O        1.80080000      -0.23890000       3.25040000
H        0.84970000       2.05100000       0.00500000
H       -0.67780000       1.84080000      -0.87370000
H       -0.65820000       1.89870000       0.90160000
H       -0.94250000      -0.44050000       0.05270000
H        0.21090000      -0.17790000      -2.10680000
H        1.76040000      -0.00920000      -1.28950000
H       -0.03590000      -2.49670000      -1.24750000
H        1.48630000      -2.33970000      -2.11320000
H        1.77860000      -3.57390000       0.06320000
H        2.72500000      -2.09150000       0.02130000
H        0.02500000      -2.48390000       1.41250000
H        1.57930000      -2.25370000       2.21450000
H        2.00700000       0.53000000       3.79150000
