16
Properties=species:S:1:pos:R:3 gdb_17938=T pbc="F F F"
C       -0.02630000       1.55270000      -0.03480000
C       -0.01530000       0.05630000       0.00960000
C        0.49150000      -1.02050000      -0.87840000
O        1.18300000      -1.72970000       0.11570000
C        0.49030000      -0.89530000       1.14740000
C       -0.69890000      -1.70670000       1.57810000
C       -1.55270000      -1.75230000       0.54240000
C       -1.05520000      -0.89280000      -0.55370000
H        0.96570000       1.96870000       0.17360000
H       -0.33500000       1.90580000      -1.02410000
H       -0.72870000       1.96600000       0.69820000
H        0.86850000      -1.06340000      -1.89370000
H        1.20410000      -0.54290000       1.89090000
H       -0.73670000      -2.30000000       2.48180000
H       -2.42890000      -2.38430000       0.46140000
H       -1.68290000      -0.56590000      -1.37490000
