23
Properties=species:S:1:pos:R:3 gdb_60411=T pbc="F F F"
C        0.20220000       1.41680000       0.30820000
C       -0.02990000      -0.05600000      -0.05100000
C       -1.52110000      -0.36870000      -0.22460000
C        0.74020000      -0.44660000      -1.31120000
O        2.12860000      -0.27530000      -1.07990000
C        2.92910000      -0.61250000      -2.17470000
C        3.10780000       0.43660000      -3.30220000
O        4.53620000       0.45020000      -3.10080000
C        4.42810000      -0.38490000      -1.92880000
H        1.26880000       1.62960000       0.40860000
H       -0.20310000       2.07490000      -0.47040000
H       -0.29290000       1.67350000       1.25020000
H        0.36520000      -0.67690000       0.76420000
H       -1.95420000       0.21600000      -1.04500000
H       -1.69000000      -1.42850000      -0.44350000
H       -2.07820000      -0.12190000       0.68430000
H        0.53360000      -1.49670000      -1.57820000
H        0.41220000       0.17680000      -2.16120000
H        2.67870000      -1.61590000      -2.54780000
H        2.84050000       0.13750000      -4.32220000
H        2.64410000       1.40400000      -3.06620000
H        4.62010000       0.16720000      -1.00020000
H        5.08520000      -1.25970000      -1.98190000
