21
Properties=species:S:1:pos:R:3 gdb_106234=T pbc="F F F"
C       -0.33190000       1.30300000       0.16170000
O        0.24630000       0.03500000      -0.08040000
C        0.84770000      -0.53160000       1.04230000
C        2.23200000      -0.10760000       1.41830000
C        2.97710000      -1.14760000       1.79880000
C        2.21350000      -2.45390000       1.71960000
C        0.82150000      -2.03300000       1.24850000
C       -0.02960000      -1.13150000       2.13070000
C        0.17480000      -0.95430000       3.61790000
H        0.41970000       2.05250000       0.44950000
H       -0.80390000       1.62270000      -0.77040000
H       -1.09360000       1.25670000       0.95310000
H        2.55660000       0.92610000       1.38890000
H        3.99850000      -1.09070000       2.15920000
H        2.68420000      -3.15400000       1.01730000
H        2.18780000      -2.96690000       2.69040000
H        0.29680000      -2.65790000       0.53570000
H       -1.07510000      -1.15700000       1.82890000
H        1.22970000      -0.82400000       3.87170000
H       -0.36430000      -0.07370000       3.98420000
H       -0.19980000      -1.82420000       4.16960000
