23
Properties=species:S:1:pos:R:3 gdb_104187=T pbc="F F F"
C        0.31180000       1.46590000      -0.37510000
C       -0.03550000       0.02530000       0.01400000
C       -1.53750000      -0.20570000      -0.14610000
C        0.92140000      -0.98780000      -0.65950000
O        1.70510000      -1.12340000       0.54550000
C        0.66650000      -0.45820000       1.33720000
C        1.25690000       0.56470000       2.29410000
C       -0.05780000      -1.56730000       2.11950000
O        0.87330000      -2.28750000       2.90530000
H        1.38950000       1.64640000      -0.35130000
H       -0.03640000       1.66930000      -1.39390000
H       -0.17000000       2.19010000       0.29000000
H       -1.84630000       0.02520000      -1.17190000
H       -1.83510000      -1.23650000       0.05950000
H       -2.11060000       0.45030000       0.51880000
H        0.45000000      -1.93580000      -0.95280000
H        1.52470000      -0.61640000      -1.49550000
H        1.96760000       1.22380000       1.79410000
H        0.46130000       1.17570000       2.73490000
H        1.77120000       0.04370000       3.10560000
H       -0.80240000      -1.14550000       2.80330000
H       -0.58030000      -2.24320000       1.42810000
H        1.58650000      -2.52020000       2.29530000
