16
Properties=species:S:1:pos:R:3 gdb_109198=T pbc="F F F"
O        0.49820000      -0.04040000       0.88330000
C       -0.27100000       0.38520000      -0.23450000
C       -1.59670000      -0.32240000      -0.29340000
N       -2.71100000       0.22620000      -0.58890000
C       -3.72110000      -0.83710000      -0.55840000
C       -3.02140000      -2.06170000       0.13560000
N       -1.61370000      -1.69540000      -0.04500000
C       -3.37970000      -2.19480000       1.55760000
N       -3.64230000      -2.29970000       2.67850000
H        0.10200000       0.33610000       1.67660000
H       -0.44840000       1.46570000      -0.24820000
H        0.31960000       0.12440000      -1.11950000
H       -4.62040000      -0.51620000      -0.02860000
H       -4.00950000      -1.10740000      -1.58100000
H       -3.25810000      -3.00440000      -0.36490000
H       -0.92710000      -2.04490000       0.61000000
