15
Properties=species:S:1:pos:R:3 gdb_44792=T pbc="F F F"
O        0.00280000       0.10410000       0.18340000
C        0.01460000       1.28930000       0.08400000
O       -1.09080000       2.10360000       0.19290000
C       -0.49850000       3.39940000      -0.01500000
C        0.78210000       3.35230000       0.94580000
C        1.15060000       2.30000000      -0.18240000
O        2.13200000       1.79350000      -1.10390000
C        1.18290000       2.19880000      -2.18400000
C        0.54920000       3.22690000      -1.18560000
H       -1.25880000       4.17450000       0.03660000
H        1.38660000       4.25780000       0.92000000
H        0.60430000       3.00730000       1.96680000
H        1.71540000       2.61900000      -3.03830000
H        0.56250000       1.34800000      -2.47800000
H        1.13610000       4.14510000      -1.24450000
