20
Properties=species:S:1:pos:R:3 gdb_97712=T pbc="F F F"
C       -0.04410000       1.55270000       0.05290000
C        0.01310000       0.01560000      -0.01890000
C        0.68870000      -0.47780000      -1.21370000
C        1.24970000      -0.87010000      -2.20670000
C        1.91780000      -1.34120000      -3.39070000
C        3.35920000      -1.05450000      -3.89740000
N        2.82510000      -1.98280000      -4.99880000
C        2.23650000      -2.79640000      -3.83600000
C        1.53910000      -1.15020000      -4.88610000
H        0.96260000       1.97930000       0.05760000
H       -0.57980000       1.96220000      -0.80770000
H       -0.55870000       1.87220000       0.96400000
H        0.52200000      -0.37450000       0.87220000
H       -1.00580000      -0.39130000       0.01520000
H        3.58370000      -0.04270000      -4.24500000
H        4.19120000      -1.47890000      -3.32930000
H        2.98480000      -3.35050000      -3.26330000
H        1.39740000      -3.43430000      -4.12550000
H        0.64770000      -1.66480000      -5.25420000
H        1.62690000      -0.14550000      -5.30810000
