20
Properties=species:S:1:pos:R:3 gdb_121036=T pbc="F F F"
C       -0.12660000       1.55720000       0.05660000
C        0.03780000       0.03590000       0.02850000
C        0.70060000      -0.46540000      -1.25950000
C        0.89160000      -1.97250000      -1.29670000
C        1.54180000      -2.52080000      -2.58480000
N        2.33710000      -3.59910000      -2.03160000
C        2.61800000      -3.37720000      -0.69800000
O        3.42450000      -3.93650000      -0.00960000
O        1.79150000      -2.38520000      -0.24800000
H        0.84330000       2.06130000      -0.01830000
H       -0.74640000       1.90770000      -0.77650000
H       -0.60090000       1.88690000       0.98580000
H        0.63810000      -0.29140000       0.88410000
H       -0.94360000      -0.44390000       0.13900000
H        0.09310000      -0.17970000      -2.12960000
H        1.68050000       0.01220000      -1.38820000
H       -0.06640000      -2.48030000      -1.12000000
H        0.79410000      -2.87910000      -3.29790000
H        2.15530000      -1.75310000      -3.07930000
H        3.03990000      -4.07830000      -2.57050000
