21
Properties=species:S:1:pos:R:3 gdb_91907=T pbc="F F F"
C        0.00830000       1.53570000       0.09290000
C        0.01830000       0.01900000      -0.02390000
C        0.65080000      -0.48730000      -1.32350000
C        0.54450000      -2.01610000      -1.41810000
O        1.39560000      -2.55890000      -2.42280000
C        0.87290000      -2.68970000      -0.10510000
C        2.18660000      -2.45160000       0.60830000
C        0.91690000      -1.85920000       1.15570000
O        0.76290000      -0.47010000       1.09080000
H        1.02650000       1.93060000       0.02300000
H       -0.59410000       1.97890000      -0.70570000
H       -0.41060000       1.83950000       1.05590000
H       -1.01810000      -0.35710000       0.03810000
H        0.15800000      -0.02930000      -2.19040000
H        1.70490000      -0.18720000      -1.34710000
H       -0.50590000      -2.26170000      -1.65010000
H        1.14190000      -2.16730000      -3.26550000
H        0.45830000      -3.68800000      -0.00570000
H        2.64580000      -3.28990000       1.12020000
H        2.88520000      -1.75310000       0.16240000
H        0.48980000      -2.28070000       2.06300000
