18
Properties=species:S:1:pos:R:3 gdb_99224=T pbc="F F F"
C        0.09430000       1.37360000       0.19060000
N       -0.17040000      -0.00230000      -0.19620000
C        0.55720000      -0.66580000      -1.15990000
N        1.16110000       0.13900000      -2.10530000
H        1.47570000      -0.32910000      -2.93990000
H        0.74050000       1.03750000      -2.28340000
N        0.64200000      -1.94790000      -1.10950000
C        1.30660000      -2.67770000      -2.16510000
C        1.18000000      -4.18970000      -1.91050000
O        0.51250000      -4.47990000      -0.78980000
O        1.63970000      -5.01880000      -2.64950000
H        1.15070000       1.56580000       0.42100000
H       -0.22210000       2.07770000      -0.58830000
H       -0.50110000       1.60010000       1.07690000
H       -0.44240000      -0.62660000       0.54740000
H        0.27100000      -3.59900000      -0.41820000
H        0.88300000      -2.49420000      -3.16630000
H        2.38360000      -2.46010000      -2.23450000
