16
Properties=species:S:1:pos:R:3 gdb_34546=T pbc="F F F"
C        0.07840000      -1.16910000       0.09610000
C       -0.01490000       0.03070000       0.03100000
C       -0.07660000       1.43880000      -0.06770000
C       -1.17180000       2.22900000      -0.05890000
C       -0.73750000       3.66520000       0.00260000
C       -0.02310000       3.83390000       1.39620000
N        1.30580000       3.48360000       0.82370000
C        0.72200000       3.66760000      -0.54360000
C        1.13810000       2.30940000      -0.14720000
H        0.14730000      -2.22650000       0.16200000
H       -2.19050000       1.89420000       0.08930000
H       -1.45500000       4.42350000      -0.30310000
H        0.02270000       4.88110000       1.70320000
H       -0.37170000       3.20910000       2.22470000
H        1.16720000       4.29500000      -1.30880000
H        2.09970000       1.89860000      -0.42610000
