18
Properties=species:S:1:pos:R:3 gdb_112053=T pbc="F F F"
O        0.03550000       1.47210000      -0.25140000
C        0.11780000       0.07240000      -0.11250000
C       -1.27080000      -0.53110000       0.13390000
N       -2.15170000      -0.15130000      -0.99350000
C       -2.57790000      -1.23890000      -1.48670000
O       -2.20880000      -2.41690000      -0.94130000
C       -1.34300000      -2.06360000       0.15460000
C       -0.22920000      -3.02010000       0.44460000
C       -1.43280000      -2.92800000       1.36840000
H       -0.69360000       1.63160000      -0.86510000
H        0.56130000      -0.40640000      -1.00120000
H        0.77840000      -0.12710000       0.73880000
H       -1.67480000      -0.09340000       1.05480000
H       -3.23960000      -1.32800000      -2.34120000
H       -0.15490000      -3.89430000      -0.19220000
H        0.72110000      -2.62350000       0.78430000
H       -1.30950000      -2.45470000       2.33740000
H       -2.14600000      -3.74410000       1.34450000
