19
Properties=species:S:1:pos:R:3 gdb_82338=T pbc="F F F"
C        0.02910000       1.58510000      -0.07460000
C        0.10000000       0.05970000      -0.01910000
C        0.75000000      -0.62450000      -1.21440000
C        2.26880000      -0.61180000      -1.30980000
C        1.54650000      -1.75880000      -0.65320000
O        1.44270000      -1.78390000       0.75130000
C        0.89390000      -0.53640000       1.19670000
C        1.93990000       0.33910000       1.73650000
C        2.78630000       1.04350000       2.21970000
H        1.02260000       2.02540000      -0.18950000
H       -0.58590000       1.90200000      -0.92270000
H       -0.41770000       1.99840000       0.83540000
H       -0.92090000      -0.33420000       0.05700000
H        0.16410000      -0.72710000      -2.12070000
H        2.69630000      -0.79510000      -2.29000000
H        2.83790000       0.06950000      -0.68830000
H        1.57270000      -2.75940000      -1.06760000
H        0.20680000      -0.77460000       2.01660000
H        3.54000000       1.66030000       2.64370000
