19
Properties=species:S:1:pos:R:3 gdb_71304=T pbc="F F F"
O       -0.05290000       1.34810000       0.05170000
C        0.02370000      -0.05780000      -0.01190000
C        0.21690000      -0.65180000      -1.45180000
C       -1.08190000      -1.44660000      -1.28290000
C       -1.20870000      -2.15210000       0.04580000
O       -0.22500000      -2.81450000       0.78980000
C        1.03610000      -2.17320000       0.91060000
C        0.94000000      -0.64930000       1.06080000
C       -1.38460000      -0.67540000       0.02950000
H        0.84250000       1.69950000      -0.01010000
H        0.07590000       0.16020000      -2.16920000
H        1.13570000      -1.19370000      -1.69720000
H       -1.75850000      -1.68810000      -2.09540000
H       -2.12780000      -2.72360000       0.13220000
H        1.51220000      -2.61760000       1.78980000
H        1.66260000      -2.41950000       0.04150000
H        1.95230000      -0.23010000       0.97840000
H        0.54650000      -0.37770000       2.04680000
H       -2.26680000      -0.14230000       0.36200000
