22
Properties=species:S:1:pos:R:3 gdb_120258=T pbc="F F F"
C       -0.21720000       1.62210000       0.07310000
C       -0.06180000       0.09990000       0.03400000
C        0.67310000      -0.39490000      -1.21850000
C        0.82670000      -1.90680000      -1.25160000
C        1.74530000      -2.58240000      -2.32470000
O        2.55140000      -1.77270000      -3.15630000
C        2.50710000      -3.19540000      -1.16430000
C        3.00030000      -2.14640000      -0.25320000
N        1.59270000      -2.56440000      -0.12120000
H        0.75850000       2.12080000       0.06080000
H       -0.78380000       1.98700000      -0.79130000
H       -0.74400000       1.94600000       0.97620000
H        0.47950000      -0.24310000       0.92330000
H       -1.05110000      -0.37370000       0.08280000
H        0.11610000      -0.08930000      -2.11620000
H        1.65000000       0.09470000      -1.29740000
H       -0.16530000      -2.37120000      -1.25890000
H        1.20090000      -3.33090000      -2.91360000
H        2.00710000      -1.44720000      -3.88030000
H        2.82270000      -4.23080000      -1.09590000
H        3.60570000      -2.46950000       0.58800000
H        3.25390000      -1.16670000      -0.64460000
