20
Properties=species:S:1:pos:R:3 gdb_84998=T pbc="F F F"
C        0.08180000       1.43670000      -0.06200000
N       -0.01190000       0.00480000       0.11310000
C       -1.36110000      -0.53320000       0.08230000
C       -1.21290000      -1.90840000       0.71670000
O       -1.98020000      -2.83370000       0.65260000
C        0.15670000      -1.95380000       1.44110000
C        0.05130000      -2.50040000       2.85940000
O        1.01500000      -2.76310000       0.63580000
C        0.63260000      -0.50540000       1.32500000
H        1.13370000       1.73970000      -0.07110000
H       -0.36160000       1.72750000      -1.01970000
H       -0.43150000       2.00600000       0.73840000
H       -2.08400000       0.04350000       0.69980000
H       -1.77130000      -0.59100000      -0.93070000
H       -0.41280000      -3.49150000       2.83870000
H        1.04760000      -2.58610000       3.30260000
H       -0.56330000      -1.85590000       3.49580000
H        0.57750000      -3.61680000       0.52800000
H        1.72110000      -0.44490000       1.23740000
H        0.32600000       0.05800000       2.22770000
