21
Properties=species:S:1:pos:R:3 gdb_112848=T pbc="F F F"
C        0.10140000       1.31890000       0.13420000
O       -0.14380000      -0.04830000      -0.09460000
C        0.56070000      -0.58140000      -1.20040000
C        2.07970000      -0.77380000      -0.96180000
C        2.48030000      -1.99370000      -1.82370000
O        3.55100000      -2.75690000      -1.28420000
C        1.22320000      -2.83750000      -1.91320000
C        0.47530000      -3.09620000      -0.63200000
C        0.04370000      -1.96890000      -1.53370000
H        1.14440000       1.51630000       0.42470000
H       -0.12710000       1.92880000      -0.75510000
H       -0.55180000       1.63360000       0.95210000
H        0.40380000       0.07710000      -2.07220000
H        2.66820000       0.11620000      -1.20070000
H        2.25000000      -1.01180000       0.09280000
H        2.73990000      -1.65560000      -2.83990000
H        4.34440000      -2.21250000      -1.30590000
H        1.15600000      -3.56580000      -2.71300000
H       -0.16320000      -3.97200000      -0.61100000
H        0.94560000      -2.87130000       0.31790000
H       -0.90750000      -2.04560000      -2.04730000
