19
Properties=species:S:1:pos:R:3 gdb_94053=T pbc="F F F"
O       -0.92530000       1.29850000       0.43360000
C       -0.15370000       0.13230000       0.14520000
C        0.57660000      -0.42250000       1.39420000
C       -0.28260000      -1.64310000       1.84890000
N       -1.53730000      -1.60720000       1.07720000
C       -2.62780000      -0.89780000       1.75230000
C       -3.11210000      -1.65500000       2.91290000
N       -3.48520000      -2.22990000       3.84300000
C       -1.15180000      -0.98760000      -0.19600000
H       -0.32610000       1.98660000       0.74040000
H        0.53740000       0.33300000      -0.68460000
H        1.60030000      -0.72690000       1.16010000
H        0.63470000       0.35240000       2.16410000
H        0.24130000      -2.57520000       1.61070000
H       -0.49140000      -1.65650000       2.92050000
H       -2.36930000       0.12020000       2.08300000
H       -3.45970000      -0.79420000       1.04750000
H       -2.01780000      -0.61190000      -0.74500000
H       -0.65230000      -1.74490000      -0.81280000
