17
Properties=species:S:1:pos:R:3 gdb_80897=T pbc="F F F"
O       -0.08500000       1.42130000      -0.04620000
C        0.04920000       0.01280000      -0.01630000
C        0.13420000      -0.62780000       1.40740000
C       -1.38170000      -0.26040000       1.55720000
C       -1.37160000      -0.60810000       0.00990000
O       -2.35420000      -0.22280000      -0.88410000
C       -1.07420000      -2.11640000       0.08950000
O        0.25820000      -2.51010000      -0.28550000
C        0.00130000      -2.13240000       1.07990000
H        0.79410000       1.80890000      -0.07300000
H        0.74770000      -0.34300000      -0.77410000
H        0.88380000      -0.31460000       2.13220000
H       -1.99230000      -0.88910000       2.21050000
H       -1.55320000       0.79730000       1.75550000
H       -2.29110000       0.73630000      -0.97130000
H       -1.85840000      -2.85550000      -0.03030000
H        0.15590000      -2.90350000       1.82710000
