14
Properties=species:S:1:pos:R:3 gdb_132192=T pbc="F F F"
C        0.06550000       1.46620000      -0.04150000
C       -0.05800000      -0.01910000       0.03070000
N       -1.12690000      -0.66020000      -0.19860000
C       -1.15080000      -2.07800000      -0.10560000
N       -2.20550000      -2.76090000      -0.32860000
C        0.10960000      -2.71550000       0.26240000
C        1.16620000      -1.93540000       0.47880000
F        2.36400000      -2.34890000       0.81510000
O        1.15520000      -0.59070000       0.38180000
H        0.82380000       1.74710000      -0.77940000
H       -0.89630000       1.89510000      -0.31730000
H        0.38850000       1.86620000       0.92480000
H       -2.96670000      -2.12270000      -0.56850000
H        0.17650000      -3.78930000       0.35480000
