16
Properties=species:S:1:pos:R:3 gdb_84339=T pbc="F F F"
C       -0.06300000       1.49070000      -0.00310000
N       -0.00610000       0.04580000      -0.03900000
C        0.03200000      -0.74770000      -1.19660000
C        0.10380000      -2.04980000      -0.91530000
C        0.11510000      -2.21300000       0.59230000
C        1.25370000      -2.95000000       1.12030000
C        2.19900000      -3.56190000       1.53810000
C        0.06380000      -0.73810000       1.09800000
O        0.06230000      -0.34200000       2.23830000
H        0.80330000       1.93530000      -0.50560000
H       -0.97700000       1.86440000      -0.47760000
H       -0.05790000       1.78660000       1.04720000
H       -0.00280000      -0.26020000      -2.16120000
H        0.15890000      -2.86450000      -1.61890000
H       -0.81370000      -2.68760000       0.94210000
H        3.03250000      -4.09810000       1.91890000
