16
Properties=species:S:1:pos:R:3 gdb_30629=T pbc="F F F"
O       -0.00290000       1.41080000       0.01030000
C       -0.01500000       0.00700000       0.00330000
C       -1.46410000      -0.49120000       0.01180000
O       -2.39720000       0.28230000       0.02280000
C       -1.65750000      -1.94970000       0.00750000
C       -0.69710000      -2.94980000      -0.00350000
N       -1.34420000      -4.14830000      -0.00350000
C       -2.70910000      -3.94790000       0.00750000
C       -2.93230000      -2.59850000       0.01450000
H        0.91460000       1.69790000       0.00340000
H        0.48060000      -0.41460000      -0.88840000
H        0.49430000      -0.42360000       0.88280000
H        0.38010000      -2.90300000      -0.01130000
H       -0.89250000      -5.04660000      -0.01050000
H       -3.38890000      -4.78440000       0.00920000
H       -3.88360000      -2.09220000       0.02360000
