17
Properties=species:S:1:pos:R:3 gdb_55709=T pbc="F F F"
C        0.10040000       1.56930000      -0.41480000
C        0.54270000       0.12480000      -0.32400000
O        1.71520000      -0.18220000      -0.28910000
C       -0.58530000      -0.90020000      -0.24270000
C       -0.27610000      -2.33650000      -0.66360000
C        0.66220000      -2.66140000      -1.78280000
N        1.02190000      -2.98880000      -0.40290000
C       -1.42360000      -3.20600000      -0.47320000
N       -2.36770000      -3.85740000      -0.32890000
H        0.95730000       2.23020000      -0.28250000
H       -0.35270000       1.75160000      -1.39660000
H       -0.66830000       1.78960000       0.33380000
H       -0.91550000      -0.89940000       0.80690000
H       -1.44700000      -0.53410000      -0.81230000
H        0.44420000      -3.51010000      -2.42340000
H        1.16340000      -1.82700000      -2.26410000
H        1.66030000      -2.27060000      -0.06370000
