22
Properties=species:S:1:pos:R:3 gdb_84990=T pbc="F F F"
C        0.61070000       1.56330000      -0.11550000
C       -0.01320000       0.17210000       0.04000000
C        0.26010000      -0.79180000      -1.15060000
C        1.33210000      -1.80290000      -0.67210000
C        0.99750000      -3.25500000      -1.03720000
C        2.74670000      -1.45380000      -1.17380000
C        1.32020000      -1.64270000       0.86080000
O        1.91440000      -2.34020000       1.65690000
N        0.53710000      -0.56740000       1.16550000
H        1.68940000       1.49660000      -0.28650000
H        0.15850000       2.09150000      -0.96140000
H        0.44760000       2.16900000       0.78250000
H       -1.09480000       0.29700000       0.17700000
H       -0.66160000      -1.31990000      -1.40990000
H        0.57700000      -0.24020000      -2.03970000
H        1.05210000      -3.40580000      -2.12070000
H        1.70450000      -3.93390000      -0.55270000
H       -0.01010000      -3.52700000      -0.70620000
H        3.01900000      -0.41940000      -0.94130000
H        3.48530000      -2.10840000      -0.70280000
H        2.80800000      -1.58270000      -2.25970000
H        0.47130000      -0.24620000       2.11920000
