15
Properties=species:S:1:pos:R:3 gdb_30448=T pbc="F F F"
C       -0.05030000       1.37080000      -0.12590000
N        0.07840000      -0.07040000      -0.02560000
C        0.62230000      -0.56160000       0.99530000
O        0.68450000      -1.99320000       0.96520000
C        1.24080000      -2.62320000       1.99580000
N        1.24020000      -3.95580000       1.85240000
N        1.74820000      -2.05430000       3.05770000
C        1.66050000      -0.69270000       3.02990000
N        1.15030000       0.05820000       2.10320000
H        0.45660000       1.71050000      -1.03680000
H       -1.11000000       1.62590000      -0.24330000
H        0.35590000       1.91410000       0.73380000
H        0.84620000      -4.37750000       1.03000000
H        1.64060000      -4.51740000       2.58270000
H        2.07550000      -0.19020000       3.90230000
