13
Properties=species:S:1:pos:R:3 gdb_14635=T pbc="F F F"
C        0.00520000       1.49900000       0.01010000
C        0.01320000       0.04800000       0.00220000
C        0.01720000      -1.16190000      -0.00440000
C        0.02100000      -2.52140000      -0.01170000
C        0.02260000      -3.73000000      -0.01820000
C        0.04270000      -5.18780000      -0.02630000
C       -1.29990000      -5.78610000      -0.01660000
N       -2.34780000      -6.27050000      -0.00910000
H        1.02540000       1.89880000       0.00250000
H       -0.51620000       1.89540000      -0.86820000
H       -0.49940000       1.88590000       0.90230000
H        0.57630000      -5.55970000      -0.91120000
H        0.59320000      -5.56910000       0.84420000
