18
Properties=species:S:1:pos:R:3 gdb_26196=T pbc="F F F"
C        0.54110000       1.46990000      -0.42530000
C       -0.12240000       0.27700000       0.25640000
O       -0.56450000      -0.71750000      -0.67260000
C        0.76720000      -0.35220000       1.29560000
N        1.65140000       0.25670000       2.06550000
C        2.16780000      -0.72000000       2.88120000
N        3.09920000      -0.38600000       3.86960000
C        1.59380000      -1.93870000       2.59990000
N        0.69760000      -1.67490000       1.57520000
H        1.43930000       1.15250000      -0.96760000
H       -0.15350000       1.93450000      -1.12970000
H        0.85280000       2.20360000       0.32130000
H       -1.04920000       0.61530000       0.73860000
H        0.18590000      -0.92930000      -1.24020000
H        3.54240000       0.49760000       3.65340000
H        3.79920000      -1.09940000       4.02260000
H        1.73220000      -2.92580000       3.00570000
H        0.09210000      -2.32120000       1.09800000
