16
Properties=species:S:1:pos:R:3 gdb_29911=T pbc="F F F"
C        0.02520000       1.45740000       0.03700000
N       -0.01610000       0.00990000      -0.01210000
C       -0.06500000      -0.77430000      -1.16090000
C       -0.02800000      -2.08850000      -0.79290000
C        0.05270000      -2.13780000       0.64190000
C        0.10760000      -3.23420000       1.52480000
C        0.15660000      -4.13410000       2.32880000
C        0.06110000      -0.81560000       1.06310000
O        0.12890000      -0.28870000       2.30260000
H        1.04890000       1.83620000      -0.06040000
H       -0.58100000       1.86440000      -0.77530000
H       -0.38330000       1.79840000       0.98930000
H       -0.12640000      -0.30670000      -2.12960000
H       -0.06330000      -2.94130000      -1.45150000
H        0.19960000      -4.94110000       3.01670000
H        0.14660000      -1.02950000       2.92280000
