15
Properties=species:S:1:pos:R:3 gdb_66524=T pbc="F F F"
O       -0.15540000       1.39920000       0.03790000
C        0.02780000       0.04830000      -0.01780000
C        0.11280000      -1.02620000       1.03800000
C       -1.00760000      -1.02730000      -0.07080000
C       -0.31980000      -1.84530000      -1.17450000
C        0.92630000      -0.88990000      -0.91800000
C        1.21160000      -1.83320000       0.32900000
C        0.48110000      -2.94240000      -0.45060000
O        0.63000000      -4.12030000      -0.59200000
H        0.58450000       1.79390000       0.51460000
H       -0.15180000      -1.00490000       2.08660000
H       -2.05320000      -0.99160000       0.20190000
H       -0.80480000      -2.00050000      -2.13450000
H        1.66390000      -0.64000000      -1.67460000
H        2.18170000      -1.98100000       0.79690000
