23
Properties=species:S:1:pos:R:3 gdb_90064=T pbc="F F F"
C       -0.16020000       1.40820000      -0.40340000
C        0.14990000      -0.06830000      -0.16600000
C        1.32980000      -0.74930000      -1.00320000
C        2.08670000      -0.85380000       0.33240000
C        2.77160000      -1.57320000       1.53580000
C        1.98980000      -0.29870000       2.12200000
C        2.61110000       0.48420000       0.96050000
C        0.80010000      -0.70450000       1.16570000
C       -0.05350000      -1.88700000       1.61900000
H        0.72680000       2.03950000      -0.48480000
H       -0.72010000       1.52410000      -1.33910000
H       -0.78400000       1.80810000       0.40330000
H       -0.78730000      -0.60860000      -0.32850000
H        1.01720000      -1.70480000      -1.43320000
H        1.80100000      -0.14610000      -1.78510000
H        2.40160000      -2.56310000       1.80360000
H        3.86250000      -1.52780000       1.61620000
H        1.96340000      -0.00750000       3.17820000
H        3.69900000       0.59760000       0.97020000
H        2.12850000       1.41680000       0.68170000
H       -1.02480000      -1.51530000       1.96870000
H       -0.25940000      -2.59700000       0.80820000
H        0.39090000      -2.44490000       2.44720000
