23
Properties=species:S:1:pos:R:3 gdb_99266=T pbc="F F F"
C       -0.20410000       1.50910000      -0.09330000
C        0.16370000       0.02890000      -0.03160000
C        0.74870000      -0.40280000       1.30780000
O        1.02790000       0.39950000       2.17120000
C        0.94540000      -1.90030000       1.49900000
C        1.82600000      -2.26750000       2.69250000
C        1.74890000      -3.75690000       3.05010000
C        2.67530000      -4.12230000       4.20950000
O        0.40340000      -4.15540000       3.31900000
H        0.66540000       2.13360000       0.12510000
H       -0.58440000       1.77360000      -1.08390000
H       -0.97140000       1.75280000       0.64660000
H       -0.70020000      -0.61210000      -0.25320000
H        0.90600000      -0.22330000      -0.80290000
H       -0.04950000      -2.34660000       1.63700000
H        1.32810000      -2.33560000       0.56650000
H        2.86840000      -1.99340000       2.49090000
H        1.52000000      -1.66700000       3.55810000
H        2.02960000      -4.35150000       2.17080000
H        2.42470000      -3.53860000       5.10440000
H        2.57910000      -5.18350000       4.45410000
H        3.72110000      -3.91430000       3.96170000
H        0.12900000      -3.71280000       4.13050000
