15
Properties=species:S:1:pos:R:3 gdb_27129=T pbc="F F F"
O       -0.62970000       1.29320000       0.36490000
C       -0.19710000       0.03430000       0.11400000
C        0.26670000      -0.43370000      -1.09240000
C        0.42120000       0.23960000      -2.41320000
C        1.12990000      -0.52400000      -3.50320000
O        1.52570000      -1.66420000      -3.43590000
N        0.57190000      -1.76350000      -0.83340000
C        0.29290000      -2.00520000       0.46610000
N       -0.18240000      -0.93020000       1.07350000
H       -0.87870000       1.31070000       1.29690000
H       -0.55240000       0.52550000      -2.84870000
H        0.94680000       1.20120000      -2.30860000
H        1.26020000       0.05960000      -4.43990000
H        0.98190000      -2.37410000      -1.52370000
H        0.45020000      -2.96820000       0.92640000
