20
Properties=species:S:1:pos:R:3 gdb_32431=T pbc="F F F"
C        0.03850000       1.39430000       0.06800000
N       -0.13930000      -0.04050000      -0.05370000
C        0.56090000      -0.68250000      -1.08420000
C        1.21230000      -0.12400000      -2.16150000
N        1.69110000      -1.16810000      -2.93670000
C        1.35970000      -2.37390000      -2.37840000
C        1.72900000      -3.68590000      -2.98140000
C        0.65740000      -2.10750000      -1.22000000
N        0.11540000      -3.09910000      -0.34990000
H        1.09380000       1.70520000       0.15460000
H       -0.38060000       1.89000000      -0.81510000
H       -0.50620000       1.75670000       0.94360000
H       -0.01300000      -0.51910000       0.82920000
H        1.36830000       0.90130000      -2.44980000
H        2.20120000      -1.05560000      -3.79380000
H        2.80950000      -3.87860000      -2.94820000
H        1.22900000      -4.47880000      -2.42040000
H        1.41700000      -3.75940000      -4.03060000
H        0.66440000      -3.20880000       0.49850000
H       -0.82560000      -2.84830000      -0.06120000
