15
Properties=species:S:1:pos:R:3 gdb_125265=T pbc="F F F"
C       -0.13480000       1.47210000       0.07140000
C        0.04420000      -0.00410000      -0.06530000
C        0.01190000      -0.83260000      -1.17120000
C        0.26480000      -2.11560000      -0.64780000
O        0.35330000      -3.25700000      -1.39330000
C       -0.11310000      -4.42170000      -0.84830000
O        0.02470000      -5.46480000      -1.40560000
N        0.44810000      -2.11730000       0.66260000
N        0.29580000      -0.81360000       0.99540000
H        0.78630000       1.96250000       0.40620000
H       -0.41290000       1.90580000      -0.89080000
H       -0.92280000       1.71870000       0.79150000
H       -0.16930000      -0.55930000      -2.19680000
H       -0.61170000      -4.25900000       0.11900000
H        0.40360000      -0.54820000       1.95960000
