18
Properties=species:S:1:pos:R:3 gdb_86680=T pbc="F F F"
C       -0.57400000       1.40980000      -0.01400000
C       -0.05660000      -0.01500000      -0.00460000
O        1.11700000      -0.17730000      -0.84480000
C        1.93970000      -0.60470000       0.24440000
C        3.09100000       0.32890000       0.55590000
O        3.22980000       1.42840000       0.09060000
C        0.74570000      -0.49500000       1.21080000
C        0.64190000      -0.10070000       2.63030000
N        0.38690000      -1.49110000       2.19740000
H        0.22080000       2.10500000       0.26740000
H       -0.92490000       1.67260000      -1.01650000
H       -1.41530000       1.52170000       0.67930000
H       -0.84310000      -0.72170000      -0.30750000
H        2.31610000      -1.63050000       0.12380000
H        3.80860000      -0.08930000       1.30080000
H        1.53190000       0.03170000       3.23900000
H       -0.19870000       0.52550000       2.91890000
H       -0.61170000      -1.68570000       2.16600000
