17
Properties=species:S:1:pos:R:3 gdb_80991=T pbc="F F F"
C       -0.07700000       1.49850000       0.00800000
C        0.09520000       0.01030000       0.01020000
C        1.00080000      -0.79970000      -0.95250000
C        0.68160000      -1.93710000       0.07340000
C        0.71950000      -0.80280000       1.17760000
O        1.98760000      -0.31780000       1.52290000
C       -0.82520000      -2.00920000      -0.09190000
O       -1.59320000      -2.92030000      -0.15950000
O       -1.19060000      -0.68220000      -0.12970000
H        0.88640000       1.97810000       0.19920000
H       -0.45800000       1.84400000      -0.95740000
H       -0.78120000       1.80550000       0.78680000
H        0.65260000      -0.92180000      -1.98000000
H        2.04270000      -0.48650000      -0.91230000
H        1.22080000      -2.87800000       0.14370000
H        0.07520000      -0.94940000       2.05370000
H        2.38710000      -0.92380000       2.15480000
