19
Properties=species:S:1:pos:R:3 gdb_13643=T pbc="F F F"
C        0.43120000       0.54250000      -1.09800000
C        0.11500000      -0.56630000      -0.20790000
C       -0.13350000      -1.48280000       0.53500000
C       -0.47630000      -2.56900000       1.45930000
N       -1.37300000      -3.63920000       0.99450000
C       -2.11480000      -3.49930000      -0.25330000
C       -1.01900000      -4.50440000      -0.13380000
C        0.27240000      -4.37960000      -0.91190000
H        1.42830000       0.94540000      -0.88870000
H        0.41730000       0.22750000      -2.14720000
H       -0.28740000       1.36210000      -0.98830000
H        0.44110000      -3.04470000       1.82780000
H       -0.95860000      -2.12400000       2.33930000
H       -3.16010000      -3.79740000      -0.21760000
H       -1.90810000      -2.62410000      -0.86610000
H       -1.31340000      -5.53830000       0.04830000
H        0.51700000      -3.34140000      -1.14280000
H        1.11020000      -4.81190000      -0.35230000
H        0.19190000      -4.93200000      -1.85460000
