20
Properties=species:S:1:pos:R:3 gdb_88714=T pbc="F F F"
C        2.80170000      -0.30060000       0.18890000
N        1.70390000      -1.22590000       0.42550000
C        1.91920000      -2.30210000       1.38600000
C        0.97830000      -1.18760000       1.69920000
C        1.28870000      -0.20040000       2.77940000
C        0.47100000       1.05480000       2.91910000
C        0.33490000      -0.03970000       3.96500000
C       -0.87360000      -0.80490000       4.06360000
C       -1.88740000      -1.44520000       4.16480000
H        3.46240000      -0.13490000       1.05480000
H        3.41670000      -0.69210000      -0.62780000
H        2.40020000       0.66840000      -0.12440000
H        1.55090000      -3.28480000       1.10280000
H        2.86330000      -2.31360000       1.93190000
H       -0.08710000      -1.37590000       1.58260000
H        2.33530000      -0.11780000       3.05200000
H        0.96450000       1.97390000       3.21440000
H       -0.36570000       1.18410000       2.24170000
H        0.81880000       0.15490000       4.91770000
H       -2.78250000      -2.00940000       4.25210000
