18
Properties=species:S:1:pos:R:3 gdb_39886=T pbc="F F F"
C        0.02810000       1.55150000       0.03640000
O        1.17980000       0.68570000      -0.03510000
C       -0.09930000       0.10000000       0.00830000
C       -0.54160000      -0.95520000       1.02070000
C       -2.07710000      -0.88550000       0.83040000
C       -2.02510000      -1.39850000      -0.62920000
C       -1.37000000      -2.77140000      -0.39340000
N       -0.11730000      -2.02720000      -0.02100000
C       -0.56090000      -0.92700000      -1.00200000
H       -0.08810000       2.09000000       0.97620000
H       -0.16870000       2.13610000      -0.86110000
H       -0.11280000      -1.03720000       2.01730000
H       -2.64670000      -1.55080000       1.48450000
H       -2.46260000       0.13130000       0.94240000
H       -2.89580000      -1.24280000      -1.26770000
H       -1.79150000      -3.43370000       0.37010000
H       -1.17070000      -3.33860000      -1.30700000
H       -0.21360000      -0.97820000      -2.03350000
