20
Properties=species:S:1:pos:R:3 gdb_65160=T pbc="F F F"
C        0.13870000       1.50310000      -0.05550000
C        0.09920000      -0.01220000      -0.01060000
C        1.22300000      -0.78720000      -0.66200000
C        1.13980000      -0.71260000       0.84140000
C       -1.25380000      -0.67030000      -0.05150000
N       -2.43650000       0.10900000       0.31050000
C       -2.32990000      -0.41360000      -1.07250000
C       -2.23330000       0.51810000      -2.16210000
C       -2.18670000       1.24370000      -3.12030000
H        1.17300000       1.85370000       0.01720000
H       -0.28680000       1.88940000      -0.98460000
H       -0.43120000       1.93000000       0.77420000
H        0.98480000      -1.73230000      -1.13960000
H        1.99960000      -0.22200000      -1.16580000
H        1.85820000      -0.09310000       1.36730000
H        0.84970000      -1.60810000       1.38210000
H       -1.22850000      -1.70980000       0.27860000
H       -3.10170000      -0.44620000       0.84140000
H       -2.93860000      -1.28490000      -1.31100000
H       -2.13590000       1.89910000      -3.95410000
