20
Properties=species:S:1:pos:R:3 gdb_105549=T pbc="F F F"
O       -0.01980000       1.52500000       0.48480000
C        0.08110000       0.11810000       0.33490000
C       -1.32050000      -0.43500000       0.06760000
C       -2.46230000       0.17460000       0.91970000
O       -3.09510000       0.74230000      -0.24170000
C       -2.06160000       0.24450000      -1.11200000
N       -1.43600000      -1.88980000       0.00890000
C       -0.29470000      -2.76370000      -0.23890000
C       -0.94830000      -2.72150000       1.10100000
H        0.86700000       1.88490000       0.57480000
H        0.73580000      -0.13800000      -0.51260000
H        0.51090000      -0.34210000       1.23910000
H       -3.09370000      -0.57340000       1.41280000
H       -2.15130000       0.94320000       1.63450000
H       -1.51190000       1.05900000      -1.59710000
H       -2.44650000      -0.45840000      -1.85880000
H       -0.48260000      -3.58920000      -0.92020000
H        0.70480000      -2.34280000      -0.31260000
H       -0.38510000      -2.26110000       1.91060000
H       -1.61900000      -3.51630000       1.41640000
