19
Properties=species:S:1:pos:R:3 gdb_74739=T pbc="F F F"
C        0.00480000       1.48820000       0.07830000
C       -0.06910000       0.00070000      -0.00820000
C       -0.06010000      -0.80160000      -1.08090000
C        0.01800000      -2.24850000      -0.59970000
C       -0.80510000      -2.13790000       0.71030000
C       -0.02180000      -0.91030000       1.22690000
C        1.42470000      -1.45920000       1.17520000
O        2.33730000      -1.17400000       1.90360000
C        1.44860000      -2.43740000      -0.02040000
H        0.91360000       1.80420000       0.60560000
H        0.00940000       1.94710000      -0.91430000
H       -0.84210000       1.89760000       0.64280000
H       -0.00280000      -0.49240000      -2.11760000
H       -0.29280000      -3.01370000      -1.31110000
H       -1.85890000      -1.91110000       0.53250000
H       -0.71860000      -3.02030000       1.35430000
H       -0.28990000      -0.46030000       2.18130000
H        1.61900000      -3.45220000       0.35780000
H        2.25410000      -2.19980000      -0.71790000
