17
Properties=species:S:1:pos:R:3 gdb_89964=T pbc="F F F"
O        0.35970000       1.07260000      -0.60880000
C        0.04710000      -0.13200000       0.03930000
C        0.12350000      -0.18920000       1.59750000
C       -1.35910000      -0.61010000       1.65760000
O       -2.27120000       0.50280000       1.75050000
C       -2.46850000       0.53510000       0.31390000
C       -1.44890000      -0.58540000       0.08490000
C       -1.77110000      -1.79260000       2.48170000
O       -1.03410000      -2.70750000       2.75390000
H        0.01480000       1.80300000      -0.08450000
H        0.67070000      -0.89380000      -0.43390000
H        0.80150000      -0.95290000       1.98320000
H        0.31940000       0.76450000       2.09470000
H       -3.49960000       0.27420000       0.04960000
H       -2.22920000       1.51170000      -0.12400000
H       -1.74290000      -1.43450000      -0.52960000
H       -2.83530000      -1.76790000       2.80450000
