17
Properties=species:S:1:pos:R:3 gdb_37879=T pbc="F F F"
C       -0.04580000       1.57050000       0.01190000
C        1.47540000       1.77430000       0.00110000
C        2.01850000       0.58710000       0.89600000
O        0.87500000      -0.20960000       1.16440000
C        0.06380000       0.03480000       0.00850000
C        0.97700000      -0.26170000      -1.22850000
O        2.03430000      -1.17290000      -0.83950000
C        2.76680000      -0.03420000      -0.36050000
C        1.96610000       0.96120000      -1.22030000
H       -0.55710000       1.94420000       0.90220000
H       -0.52240000       1.97590000      -0.88700000
H        1.87680000       2.77150000       0.16940000
H        2.57040000       0.77300000       1.81650000
H       -0.84790000      -0.55610000       0.08610000
H        0.45580000      -0.57350000      -2.13500000
H        3.84730000      -0.18040000      -0.33300000
H        2.28910000       1.40360000      -2.16110000
