16
Properties=species:S:1:pos:R:3 gdb_86472=T pbc="F F F"
C        0.73930000       1.51220000      -0.08530000
C       -0.06170000       0.21730000      -0.06070000
C        0.23300000      -0.77920000      -1.21490000
C        1.01150000      -1.64120000      -0.15370000
N        0.39760000      -0.81780000       0.90970000
C        0.64910000      -3.06530000      -0.08900000
N        0.33390000      -4.17570000      -0.05780000
C        2.47310000      -1.50730000      -0.26990000
N        3.61600000      -1.34620000      -0.33360000
H        1.80460000       1.32630000      -0.25580000
H        0.37440000       2.17080000      -0.88050000
H        0.63170000       2.04810000       0.86390000
H       -1.12440000       0.43990000       0.07630000
H       -0.64280000      -1.30440000      -1.59360000
H        0.83940000      -0.41330000      -2.04210000
H        1.02960000      -0.51720000       1.64460000
