15
Properties=species:S:1:pos:R:3 gdb_27840=T pbc="F F F"
N        0.06150000       1.35040000       0.17240000
C       -0.05810000      -0.00930000       0.05850000
C       -1.23810000      -0.69410000       0.00310000
C       -1.18210000      -2.11590000      -0.05100000
N       -2.36040000      -2.81410000      -0.15320000
C        0.03680000      -2.76370000      -0.04670000
C        1.26670000      -2.05940000      -0.00020000
O        2.39990000      -2.45770000       0.00370000
O        1.12620000      -0.61280000       0.05360000
H        0.96540000       1.72140000      -0.07760000
H       -0.72610000       1.90490000      -0.12150000
H       -2.18150000      -0.16430000      -0.00090000
H       -3.20150000      -2.35600000       0.15770000
H       -2.32830000      -3.80150000       0.04440000
H        0.10470000      -3.84320000      -0.08820000
