22
Properties=species:S:1:pos:R:3 gdb_96040=T pbc="F F F"
C       -0.03120000       1.47420000       0.29770000
C        0.14410000      -0.02970000       0.10540000
C        0.81370000      -0.46310000      -1.20940000
C        1.14280000      -1.94140000      -0.95900000
C        1.65090000      -1.96230000       0.49810000
C        0.97190000      -0.75950000       1.21670000
N        1.96300000       0.07830000       1.88310000
C        1.75310000       0.66800000       3.08880000
O        0.73250000       0.58940000       3.74150000
H        0.92800000       1.99880000       0.23920000
H       -0.68460000       1.88840000      -0.47690000
H       -0.47340000       1.69760000       1.27300000
H       -0.85150000      -0.49430000       0.12560000
H        0.17840000      -0.30050000      -2.08510000
H        1.73750000       0.11130000      -1.36940000
H        0.22930000      -2.54050000      -1.05180000
H        1.87110000      -2.35460000      -1.66220000
H        1.44960000      -2.90920000       1.00510000
H        2.73880000      -1.82860000       0.51750000
H        0.30190000      -1.08230000       2.01480000
H        2.84980000       0.23750000       1.43110000
H        2.64240000       1.23780000       3.42690000
