16
Properties=species:S:1:pos:R:3 gdb_124394=T pbc="F F F"
C       -0.42630000       1.33860000       0.04500000
C        0.05400000      -0.12950000      -0.06450000
C        0.88180000      -0.31650000      -1.25690000
C        1.56420000      -0.44500000      -2.23770000
C        0.77520000      -0.57310000       1.18490000
C        2.07460000      -0.93380000       1.35410000
O        2.32010000      -1.25000000       2.63380000
N        1.14860000      -1.10310000       3.36770000
C        0.24900000      -0.70500000       2.50390000
H        0.42820000       2.01090000       0.15440000
H       -0.98330000       1.62430000      -0.85070000
H       -1.07730000       1.46140000       0.91520000
H       -0.84000000      -0.75910000      -0.17870000
H        2.15770000      -0.56800000      -3.10990000
H        2.90520000      -1.01480000       0.67170000
H       -0.76030000      -0.52440000       2.84810000
