17
Properties=species:S:1:pos:R:3 gdb_34726=T pbc="F F F"
N       -0.07560000      -1.17580000      -0.10230000
C       -0.04170000      -0.02140000      -0.04730000
C       -0.00210000       1.43480000       0.02400000
C       -0.44550000       1.99980000       1.38310000
C        0.76860000       2.09590000       2.24050000
C        1.95390000       1.58730000       1.42760000
C        1.42820000       2.05200000       0.05310000
C        1.05430000       3.50960000       0.37770000
N        0.21300000       3.30930000       1.58420000
H       -0.59780000       1.84030000      -0.80060000
H       -1.45450000       1.87110000       1.75230000
H        0.73300000       2.05990000       3.32170000
H        2.89700000       2.07060000       1.69840000
H        2.07910000       0.50360000       1.49750000
H        2.05240000       1.86210000      -0.81700000
H        1.92000000       4.13100000       0.62270000
H        0.47350000       4.00400000      -0.40650000
