18
Properties=species:S:1:pos:R:3 gdb_33025=T pbc="F F F"
O       -0.06510000       1.45730000       0.01060000
C        0.03040000       0.04350000       0.00270000
C       -1.39690000      -0.51270000       0.01200000
C       -1.41520000      -2.02010000       0.00430000
C       -1.41450000      -2.74620000      -1.18850000
C       -1.39810000      -4.13680000      -1.14320000
N       -1.38240000      -4.84500000      -0.01070000
C       -1.38390000      -4.14870000       1.12930000
C       -1.39970000      -2.75860000       1.18930000
H        0.82550000       1.82020000       0.00530000
H        0.56090000      -0.32270000      -0.89050000
H        0.57590000      -0.33170000       0.88300000
H       -1.90810000      -0.12760000       0.90030000
H       -1.92310000      -0.11840000      -0.86350000
H       -1.43360000      -2.23450000      -2.14590000
H       -1.40130000      -4.71150000      -2.06690000
H       -1.37550000      -4.73300000       2.04680000
H       -1.40670000      -2.25700000       2.15220000
