17
Properties=species:S:1:pos:R:3 gdb_79845=T pbc="F F F"
O       -0.02870000       1.43780000       0.12070000
C       -0.02000000       0.03900000      -0.04550000
C       -1.37930000      -0.63270000      -0.03570000
C       -2.03590000      -0.52700000      -1.41580000
O       -1.68320000       0.51500000      -2.28950000
C       -0.27600000       0.39000000      -2.54890000
C        0.24650000      -0.56260000      -1.47400000
C       -0.95620000      -1.52040000      -1.21180000
O       -0.98590000      -2.89420000      -1.30600000
H        0.87590000       1.73370000       0.26290000
H        0.63880000      -0.44310000       0.68860000
H       -1.96410000      -0.88680000       0.84110000
H       -3.07490000      -0.82680000      -1.48550000
H       -0.11040000      -0.00700000      -3.56230000
H        0.17030000       1.38630000      -2.47660000
H        1.22990000      -0.99170000      -1.66350000
H       -1.21690000      -3.13450000      -2.21030000
