19
Properties=species:S:1:pos:R:3 gdb_97664=T pbc="F F F"
C       -0.45260000       1.38540000       0.17380000
C        0.37450000       0.12150000      -0.12550000
C        0.98520000      -0.46510000       1.06250000
C        1.47450000      -0.93100000       2.06190000
C        2.09950000      -1.46890000       3.24000000
O        3.43550000      -1.09360000       3.45980000
C        1.25210000      -1.77150000       4.47520000
C        1.80170000      -2.89720000       3.65040000
O        0.88430000      -3.65250000       2.93000000
H        0.17300000       2.16160000       0.62280000
H       -0.88800000       1.78360000      -0.74760000
H       -1.26460000       1.16170000       0.87080000
H       -0.26460000      -0.62840000      -0.60950000
H        1.15970000       0.35970000      -0.85480000
H        3.44600000      -0.14460000       3.62880000
H        1.71350000      -1.57020000       5.43520000
H        0.18600000      -1.59240000       4.40290000
H        2.66140000      -3.43580000       4.04830000
H        1.20270000      -3.72520000       2.02320000
