16
Properties=species:S:1:pos:R:3 gdb_15627=T pbc="F F F"
O        0.02230000       1.42920000       0.00700000
C        0.00620000       0.01270000       0.00200000
C       -1.40660000      -0.46560000       0.01230000
C       -2.53480000       0.25560000       0.02380000
C       -3.78420000      -0.59010000       0.03170000
C       -3.25940000      -2.03960000       0.02320000
C       -1.72950000      -1.91230000       0.01090000
O       -0.93080000      -2.82310000       0.00170000
H        0.93940000       1.71690000       0.00020000
H        0.51510000      -0.40160000      -0.88380000
H        0.53020000      -0.40810000       0.87580000
H       -2.56460000       1.33880000       0.02720000
H       -4.40010000      -0.37080000       0.91240000
H       -4.41450000      -0.36580000      -0.83760000
H       -3.56780000      -2.61390000       0.90180000
H       -3.58240000      -2.60910000      -0.85320000
