19
Properties=species:S:1:pos:R:3 gdb_84170=T pbc="F F F"
C       -0.03250000       1.50810000       0.03750000
N        0.00810000       0.05620000       0.00980000
C       -1.18060000      -0.67260000       0.02620000
C       -1.25160000      -2.00550000       0.00370000
C       -2.54670000      -2.75890000       0.02240000
C        0.01410000      -2.81530000      -0.04250000
N        1.18500000      -1.95310000      -0.05740000
C        1.24200000      -0.58470000      -0.03320000
O        2.30240000       0.01900000      -0.04880000
H        0.99570000       1.86520000       0.01860000
H       -0.56930000       1.90320000      -0.83300000
H       -0.52530000       1.87040000       0.94740000
H       -2.07540000      -0.06000000       0.05980000
H       -3.40310000      -2.08020000       0.05650000
H       -2.65620000      -3.39470000      -0.86690000
H       -2.61190000      -3.42720000       0.89210000
H        0.05480000      -3.49800000       0.82400000
H        0.01020000      -3.46730000      -0.93330000
H        2.09830000      -2.37580000      -0.08790000
