9
Properties=species:S:1:pos:R:3 gdb_165=T pbc="F F F"
N        0.02000000       1.35220000       0.00970000
C        1.28570000       1.83710000      -0.00030000
C        2.11840000       0.73820000      -0.01460000
C        1.24130000      -0.36830000      -0.01190000
N       -0.03490000       0.00740000       0.00280000
H       -0.84010000       1.87320000       0.02110000
H        1.48770000       2.89640000       0.00360000
H        3.19600000       0.73580000      -0.02530000
H        1.48750000      -1.42000000      -0.02020000
