17
Properties=species:S:1:pos:R:3 gdb_67530=T pbc="F F F"
C       -0.03580000       1.56880000      -0.01960000
C        0.00990000       0.05900000       0.03640000
C       -1.31750000      -0.66910000       0.40260000
O       -1.11640000      -2.08330000       0.30120000
C       -0.66660000      -1.41730000       1.48840000
C        0.71110000      -0.77980000       1.17730000
C        1.59060000      -1.52260000       0.13150000
C        0.88920000      -0.71240000      -0.98180000
O        1.02960000      -0.63290000      -2.16580000
H        0.97070000       1.99850000      -0.03260000
H       -0.55100000       1.89970000      -0.92790000
H       -0.56930000       1.98250000       0.84330000
H       -2.32980000      -0.30050000       0.27520000
H       -1.05070000      -1.78480000       2.43310000
H        1.20570000      -0.27520000       2.00540000
H        2.65680000      -1.28540000       0.19890000
H        1.46560000      -2.60460000       0.05730000
