16
Properties=species:S:1:pos:R:3 gdb_28301=T pbc="F F F"
O        0.07450000       1.36390000      -0.10090000
C        0.06450000      -0.00020000      -0.04240000
C        0.02390000      -0.81200000      -1.15710000
N        0.02710000      -2.10620000      -0.68110000
C        0.00060000      -3.41130000      -1.19010000
C        0.02350000      -4.29670000      -0.18570000
C        0.06980000      -3.55690000       1.14390000
C        0.06840000      -2.12180000       0.69390000
C        0.09260000      -0.81730000       1.13240000
H        0.10490000       1.70500000       0.79690000
H       -0.00570000      -0.57270000      -2.20580000
H       -0.03300000      -3.57230000      -2.25770000
H        0.01130000      -5.37100000      -0.28600000
H       -0.79210000      -3.80540000       1.77700000
H        0.96380000      -3.82040000       1.72420000
H        0.12630000      -0.47210000       2.15540000
