17
Properties=species:S:1:pos:R:3 gdb_81792=T pbc="F F F"
C       -0.14030000       1.49840000       0.03980000
C        0.14170000       0.03560000      -0.00480000
O       -0.68960000      -0.88340000       0.74460000
C        0.73380000      -0.90980000       0.96490000
C        1.29290000      -1.81250000      -0.15460000
O        0.87560000      -3.14710000      -0.17110000
C        0.66140000      -0.80640000      -1.16230000
C        0.16890000      -0.98840000      -2.52260000
O        1.38760000      -0.26760000      -2.24810000
H        0.69750000       2.05270000      -0.39310000
H       -1.03840000       1.73880000      -0.53940000
H       -0.29750000       1.83140000       1.06870000
H        1.08430000      -0.75700000       1.97940000
H        2.38390000      -1.79730000      -0.22740000
H       -0.07540000      -3.13080000      -0.00210000
H        0.30330000      -1.95270000      -3.00910000
H       -0.65660000      -0.38240000      -2.89220000
