14
Properties=species:S:1:pos:R:3 gdb_15024=T pbc="F F F"
C       -0.18410000      -1.09840000       0.04760000
C       -0.04770000       0.09280000       0.01510000
C        0.08680000       1.55110000      -0.00320000
C        1.50950000       1.95160000      -0.00000000
N        2.61260000       2.29000000       0.02710000
N       -0.57010000       2.12460000      -1.18480000
C       -2.00650000       2.35700000      -1.03630000
C       -1.05130000       3.49820000      -1.02550000
H       -0.29390000      -2.15500000       0.06810000
H       -0.34760000       1.94730000       0.93520000
H       -2.60160000       2.13790000      -1.91670000
H       -2.47230000       2.08550000      -0.09100000
H       -0.87570000       3.99500000      -0.07310000
H       -0.93010000       4.13130000      -1.89810000
