16
Properties=species:S:1:pos:R:3 gdb_123565=T pbc="F F F"
C       -0.02890000       1.46590000       0.09470000
C        1.29440000       0.75640000       0.01930000
C        2.05870000       0.45040000       1.32960000
C        1.09430000      -0.45290000       2.05300000
C        0.01450000      -0.73720000       1.27940000
O       -0.83990000      -1.55150000       1.89310000
N       -0.30310000      -1.84400000       3.16720000
C        0.83000000      -1.17480000       3.24080000
C       -0.01560000      -0.04910000      -0.02210000
H       -0.34840000       1.89640000       1.03820000
H       -0.34100000       2.02090000      -0.78370000
H        1.87410000       0.87820000      -0.88790000
H        3.01280000      -0.04610000       1.11610000
H        2.29520000       1.36890000       1.87870000
H        1.40880000      -1.26120000       4.15030000
H       -0.38720000      -0.53380000      -0.91590000
