17
Properties=species:S:1:pos:R:3 gdb_80936=T pbc="F F F"
O       -0.07410000       1.46840000      -0.05310000
C        0.01790000       0.06750000       0.00100000
C       -0.02090000      -0.66100000       1.38730000
C       -1.49920000      -0.17360000       1.53450000
C       -1.36190000      -0.65500000       0.03840000
O       -2.31170000      -0.72450000      -0.95170000
C       -0.59340000      -1.84940000       0.60140000
C       -0.11230000      -3.12130000       0.08770000
O       -1.12700000      -3.03410000       1.12390000
H        0.79610000       1.83860000       0.12310000
H        0.74480000      -0.32280000      -0.72280000
H        0.75210000      -0.67740000       2.15070000
H       -2.14480000      -0.77680000       2.17310000
H       -1.63350000       0.89650000       1.68190000
H       -2.57600000       0.17410000      -1.17940000
H       -0.47110000      -3.49250000      -0.87050000
H        0.84440000      -3.52380000       0.41740000
