15
Properties=species:S:1:pos:R:3 gdb_57037=T pbc="F F F"
O        0.19860000       1.50690000       0.08700000
C        0.06810000       0.09940000      -0.01370000
C        0.67430000      -0.43440000      -1.23680000
C        1.19930000      -0.86830000      -2.22670000
C        0.66480000      -0.56530000       1.23930000
O        1.96330000      -0.01340000       1.56780000
C        1.53660000       0.50120000       2.85230000
C        0.13000000      -0.04370000       2.58590000
O       -0.91490000      -0.06710000       3.15510000
H        1.14820000       1.67890000       0.13460000
H       -1.00900000      -0.10800000      -0.01350000
H        1.65120000      -1.24840000      -3.10970000
H        0.68430000      -1.65740000       1.14150000
H        2.06930000       0.03830000       3.69150000
H        1.60950000       1.59280000       2.92060000
