19
Properties=species:S:1:pos:R:3 gdb_66004=T pbc="F F F"
O       -0.32600000       1.32990000       0.70610000
C        0.04770000       0.04590000       0.26740000
C        0.86290000      -0.04950000      -1.07280000
C        1.90310000      -0.99000000      -0.38220000
C        1.32160000      -0.49710000       0.94570000
O        1.76440000      -0.29860000       2.04290000
C       -1.12780000      -0.91630000       0.30420000
C       -2.13670000      -0.84520000       1.41870000
C       -2.51960000      -0.40640000       0.02650000
H        0.14800000       1.49210000       1.53170000
H        0.32300000      -0.45680000      -1.92810000
H        1.29190000       0.92050000      -1.32870000
H        1.70180000      -2.05100000      -0.55850000
H        2.96720000      -0.80130000      -0.53590000
H       -0.89410000      -1.90750000      -0.07510000
H       -2.53910000      -1.77460000       1.80560000
H       -2.00530000      -0.06320000       2.15710000
H       -2.63180000       0.65870000      -0.13710000
H       -3.18540000      -1.03430000      -0.55480000
