19
Properties=species:S:1:pos:R:3 gdb_62386=T pbc="F F F"
C       -0.15210000       1.52850000       0.02400000
C       -0.01940000      -0.00190000       0.01110000
C       -1.31910000      -0.59020000       0.29370000
C       -2.41370000      -1.03350000       0.52270000
C        0.81510000      -0.61470000      -1.19560000
C        2.10250000      -0.21020000      -0.41130000
C        1.20940000      -0.62200000       0.78050000
O        1.04660000      -2.02930000       0.58670000
C        0.76290000      -2.10280000      -0.83590000
H        0.78600000       2.04360000      -0.18710000
H       -0.88680000       1.84370000      -0.72290000
H       -0.51250000       1.86490000       1.00080000
H       -3.37200000      -1.43900000       0.73420000
H        0.62430000      -0.32690000      -2.22890000
H        2.99300000      -0.82230000      -0.56710000
H        2.35390000       0.84600000      -0.46600000
H        1.42330000      -0.41050000       1.82720000
H       -0.21750000      -2.56110000      -0.99350000
H        1.53300000      -2.69490000      -1.34300000
