16
Properties=species:S:1:pos:R:3 gdb_128363=T pbc="F F F"
C       -0.11220000       1.31040000       0.01460000
N       -0.16930000      -0.12110000      -0.22420000
C        0.59870000      -0.68660000      -1.19080000
N        1.58870000      -0.06560000      -1.79820000
O        2.10250000      -1.07940000      -2.65630000
C        1.34910000      -2.15340000      -2.46100000
C        1.64370000      -3.42350000      -3.19770000
O        0.60700000      -4.35830000      -3.04570000
N        0.40670000      -1.99960000      -1.58330000
H        0.92010000       1.60230000       0.22350000
H       -0.46260000       1.89970000      -0.84350000
H       -0.72520000       1.54720000       0.88620000
H       -1.04590000      -0.59130000      -0.06700000
H        1.77710000      -3.20300000      -4.26390000
H        2.60850000      -3.81440000      -2.83230000
H        0.12820000      -4.12240000      -2.24060000
