18
Properties=species:S:1:pos:R:3 gdb_14212=T pbc="F F F"
C       -0.03720000       1.40780000      -0.03050000
C       -0.01830000      -0.08200000       0.00770000
O        0.95720000      -0.78700000      -0.76980000
C        0.19480000      -1.99320000      -0.48960000
C        0.45470000      -2.24980000       1.01580000
C       -0.34610000      -0.96760000       1.23320000
C       -1.07550000      -1.13190000      -0.10700000
C       -2.51600000      -1.15210000      -0.49930000
H        0.89240000       1.81840000       0.37830000
H       -0.15080000       1.77290000      -1.05620000
H       -0.86840000       1.79350000       0.56770000
H        0.29310000      -2.75880000      -1.25720000
H       -0.08680000      -3.12820000       1.37790000
H        1.50370000      -2.28870000       1.32660000
H       -0.73550000      -0.55550000       2.15660000
H       -3.05390000      -0.32050000      -0.03090000
H       -2.63930000      -1.05870000      -1.58430000
H       -3.00920000      -2.07920000      -0.18460000
