18
Properties=species:S:1:pos:R:3 gdb_76461=T pbc="F F F"
C        0.16240000       1.46800000       0.89410000
C        0.19790000       0.03320000       0.42160000
N        1.23890000      -0.54550000      -0.36680000
C        2.38900000       0.23540000      -0.82310000
C        1.14950000      -1.01880000       1.03430000
C        2.10500000      -0.62510000       2.10920000
O        2.73010000       0.41220000       2.16110000
C        0.59800000      -2.40730000       1.13860000
O        0.65620000      -3.09590000       2.12660000
H        1.11500000       1.79570000       1.30830000
H       -0.10610000       2.11950000       0.05500000
H       -0.60970000       1.58280000       1.66070000
H       -0.78720000      -0.36930000       0.17670000
H        2.79160000       0.93700000      -0.08860000
H        3.18060000      -0.46280000      -1.10840000
H        2.07850000       0.77930000      -1.72020000
H        2.21310000      -1.40300000       2.88850000
H        0.11050000      -2.75040000       0.19990000
