20
Properties=species:S:1:pos:R:3 gdb_103892=T pbc="F F F"
C       -0.02840000       1.52340000       0.37910000
C        0.01790000       0.02960000       0.12560000
C       -1.27940000      -0.59080000      -0.36250000
O       -1.63020000      -0.20880000      -1.68410000
C        1.31220000      -0.56980000      -0.39130000
C        0.88310000      -0.84060000       1.01450000
O        1.67030000      -0.25110000       2.02220000
C        1.09580000      -0.16050000       3.24240000
N        1.73070000       0.36390000       4.19760000
H        0.90920000       1.88410000       0.80700000
H       -0.19850000       2.07290000      -0.55400000
H       -0.83590000       1.78350000       1.07460000
H       -1.18450000      -1.68160000      -0.39270000
H       -2.08980000      -0.35320000       0.34640000
H       -1.82810000       0.73260000      -1.68020000
H        1.26620000      -1.37790000      -1.11270000
H        2.15610000       0.10070000      -0.51080000
H        0.52860000      -1.83720000       1.27080000
H        0.08150000      -0.58070000       3.27840000
H        1.16380000       0.34510000       5.04280000
