18
Properties=species:S:1:pos:R:3 gdb_44635=T pbc="F F F"
O        0.19480000       0.01930000      -0.49960000
C        0.07730000       1.17510000      -0.21170000
C       -1.12810000       2.07100000       0.14150000
C       -0.14050000       3.23810000       0.40530000
C        0.54780000       3.31400000       1.79530000
C        0.24140000       2.29390000       2.92060000
C        1.41300000       1.43960000       2.35160000
N        1.71570000       2.48710000       1.31500000
C        1.07430000       2.34310000      -0.04030000
H       -1.74860000       2.24370000      -0.74500000
H       -1.78240000       1.72860000       0.94740000
H       -0.37790000       4.18900000      -0.06860000
H        0.78400000       4.33170000       2.12140000
H        0.41370000       2.68570000       3.92500000
H       -0.74580000       1.82750000       2.90330000
H        2.25800000       1.30840000       3.03330000
H        1.14330000       0.45980000       1.94950000
H        1.75250000       2.54480000      -0.87340000
