22
Properties=species:S:1:pos:R:3 gdb_97424=T pbc="F F F"
C        0.28350000       0.99380000      -0.36710000
N        0.07430000      -0.43340000      -0.24830000
C       -1.09530000      -0.82530000       0.00110000
O       -1.36600000      -2.13100000       0.17810000
C       -2.75430000      -2.50290000       0.25310000
C       -3.34430000      -2.73400000      -1.15680000
C       -3.18030000      -4.25460000      -1.44960000
C       -2.43670000      -4.83710000      -0.22530000
C       -2.80420000      -3.87850000       0.91920000
H        0.71190000       1.22350000      -1.34960000
H       -0.63260000       1.59510000      -0.24120000
H        1.01350000       1.32420000       0.38120000
H       -1.96650000      -0.15930000       0.11640000
H       -3.29440000      -1.73210000       0.81560000
H       -4.39930000      -2.44280000      -1.16800000
H       -2.83170000      -2.10500000      -1.88880000
H       -4.16410000      -4.72300000      -1.55440000
H       -2.64210000      -4.43970000      -2.38210000
H       -2.70910000      -5.87510000      -0.01810000
H       -1.35520000      -4.80330000      -0.38780000
H       -2.13800000      -3.93540000       1.78300000
H       -3.82850000      -4.06660000       1.26270000
