13
Properties=species:S:1:pos:R:3 gdb_125186=T pbc="F F F"
C        0.06250000       1.51030000      -0.01410000
C       -0.08620000       0.03620000       0.06510000
C       -1.11910000      -0.84640000      -0.04500000
N       -2.48650000      -1.04050000      -0.25950000
C       -2.60700000      -2.31920000      -0.18940000
O       -1.45710000      -3.06590000       0.05530000
C       -0.50890000      -2.09910000       0.14530000
N        0.77470000      -2.08510000       0.35860000
O        1.03830000      -0.69040000       0.30410000
H        0.75150000       1.79190000      -0.81710000
H       -0.90930000       1.96740000      -0.20860000
H        0.46130000       1.91460000       0.92190000
H       -3.50790000      -2.90420000      -0.29840000
