15
Properties=species:S:1:pos:R:3 gdb_3580=T pbc="F F F"
O       -0.05040000       1.49400000      -0.15900000
C       -0.11860000       0.10450000       0.01980000
C       -0.47510000      -0.65510000       1.26740000
C       -1.68030000      -0.13360000       2.09490000
C       -2.32150000       1.13230000       1.58240000
C       -2.56420000      -0.16980000       0.86480000
C       -1.37940000      -0.69060000       0.00740000
H        0.69550000       1.81520000       0.36010000
H        0.66570000      -0.42450000      -0.52980000
H        0.17300000      -1.43690000       1.64650000
H       -1.89510000      -0.52960000       3.07890000
H       -3.16870000       1.45330000       2.18340000
H       -1.75000000       1.92840000       1.13030000
H       -3.55180000      -0.60130000       0.76890000
H       -1.51550000      -1.50340000      -0.69600000
