17
Properties=species:S:1:pos:R:3 gdb_75971=T pbc="F F F"
C       -0.00140000       1.45100000       0.02110000
N       -0.02160000      -0.01330000      -0.02800000
C       -1.24900000      -0.67160000      -0.08350000
O       -2.30150000      -0.07450000      -0.14640000
C       -1.17840000      -2.18830000      -0.01850000
C        0.10630000      -2.73160000      -0.63020000
N        1.22340000      -2.01490000      -0.04020000
C        1.23390000      -0.64930000       0.07940000
O        2.24430000      -0.00640000       0.27670000
H        0.65280000       1.84010000      -0.76070000
H       -1.02270000       1.79450000      -0.12640000
H        0.37870000       1.79310000       0.98620000
H       -1.23280000      -2.47210000       1.03980000
H       -2.06720000      -2.58010000      -0.51490000
H        0.21710000      -3.79680000      -0.41170000
H        0.08270000      -2.61940000      -1.72520000
H        2.15140000      -2.40100000      -0.11940000
