13
Properties=species:S:1:pos:R:3 gdb_25050=T pbc="F F F"
O       -0.05020000      -0.08890000       0.00400000
C        0.02180000       1.12370000       0.00910000
N       -1.16850000       1.89830000       0.02840000
C       -1.23420000       3.24520000       0.03570000
C       -0.08610000       3.99540000       0.02420000
C        1.16880000       3.29810000       0.00430000
C        1.22180000       1.94210000      -0.00290000
C       -0.15150000       5.41610000       0.03190000
N       -0.19340000       6.57390000       0.03800000
H       -2.01740000       1.34770000       0.03690000
H       -2.22140000       3.69030000       0.05080000
H        2.08220000       3.88310000      -0.00490000
H        2.16300000       1.40740000      -0.01790000
