23
Properties=species:S:1:pos:R:3 gdb_63981=T pbc="F F F"
C        0.29750000       1.50160000      -0.06240000
C        0.07200000      -0.00760000      -0.00840000
C       -1.40560000      -0.33000000      -0.24880000
C        1.01600000      -0.86470000      -0.91600000
C        1.41750000      -1.73380000       0.30880000
O        2.77960000      -1.70040000       0.69170000
C        3.01390000      -0.46200000       1.35140000
C        1.71690000      -0.14520000       2.11830000
C        0.61780000      -0.78040000       1.25040000
H        1.35130000       1.76920000       0.06290000
H       -0.02630000       1.90010000      -1.03100000
H       -0.27490000       2.02080000       0.71530000
H       -1.73270000       0.03580000      -1.22900000
H       -1.59160000      -1.40920000      -0.21880000
H       -2.04050000       0.13750000       0.51320000
H        0.52500000      -1.39770000      -1.73480000
H        1.86540000      -0.31110000      -1.32580000
H        1.11770000      -2.78230000       0.25760000
H        3.88810000      -0.58760000       1.99600000
H        3.24340000       0.33200000       0.62290000
H        1.73530000      -0.63720000       3.09540000
H        1.58270000       0.92600000       2.28890000
H       -0.16800000      -1.22960000       1.86130000
