12
Properties=species:S:1:pos:R:3 gdb_129946=T pbc="F F F"
N        0.10440000       1.40150000       0.16800000
C       -0.01150000       0.03520000       0.03780000
C       -1.06020000      -0.82700000      -0.01460000
O       -0.61600000      -2.16040000      -0.03980000
C        0.71340000      -2.07680000      -0.01710000
N        1.74950000      -2.88130000      -0.04400000
N        2.81220000      -2.02360000      -0.00650000
N        2.46810000      -0.76670000       0.04010000
N        1.10950000      -0.79390000       0.03720000
H        0.93120000       1.78350000      -0.27270000
H       -0.72730000       1.91590000      -0.08380000
H       -2.12500000      -0.68390000      -0.02550000
