21
Properties=species:S:1:pos:R:3 gdb_95834=T pbc="F F F"
C        0.55990000       1.42590000       0.14650000
C       -0.25850000       0.16020000      -0.12060000
C        0.24720000      -0.55120000      -1.38740000
O       -0.33270000      -1.82150000      -1.60350000
C        0.38550000      -2.88660000      -1.01450000
C        0.27240000      -2.96150000       0.51480000
O        1.14590000      -3.96910000       1.01120000
C        0.67340000      -1.65640000       1.21140000
O       -0.31650000      -0.66340000       1.04100000
H        1.60850000       1.18130000       0.34900000
H        0.53150000       2.10340000      -0.71400000
H        0.15930000       1.95460000       1.01480000
H       -1.30510000       0.43940000      -0.29260000
H       -0.01730000       0.07410000      -2.24790000
H        1.34540000      -0.63260000      -1.37220000
H       -0.01580000      -3.80470000      -1.46040000
H        1.45590000      -2.82810000      -1.27370000
H       -0.77310000      -3.16080000       0.79290000
H        0.84640000      -4.82090000       0.67880000
H        0.74110000      -1.85410000       2.28560000
H        1.66940000      -1.32990000       0.87860000
