18
Properties=species:S:1:pos:R:3 gdb_54545=T pbc="F F F"
N        0.12420000       1.14100000      -0.53380000
C       -0.02290000       0.08200000       0.31520000
O        0.80990000      -0.20360000       1.15660000
C       -1.27850000      -0.72930000       0.14290000
C       -2.14700000      -1.02570000       1.40500000
C       -2.52850000      -2.32860000       0.71400000
C       -2.63540000      -2.03350000      -0.79300000
C       -2.32370000      -0.55250000      -0.99720000
C       -1.29550000      -2.29280000      -0.15140000
H        0.91960000       1.74500000      -0.40420000
H       -0.60240000       1.42400000      -1.16670000
H       -1.50090000      -1.19860000       2.26780000
H       -2.92900000      -0.29780000       1.65250000
H       -3.00930000      -3.19860000       1.14220000
H       -3.18580000      -2.69110000      -1.45320000
H       -3.11920000       0.18720000      -0.84340000
H       -1.84680000      -0.39070000      -1.96950000
H       -0.50800000      -3.00590000      -0.34280000
