18
Properties=species:S:1:pos:R:3 gdb_115225=T pbc="F F F"
C        0.00470000       1.38170000      -0.03200000
O        0.07570000      -0.03680000      -0.02080000
C        0.70370000      -0.56230000       1.08910000
C        0.56020000      -2.07870000       1.03230000
N        1.40520000      -2.67730000       2.05390000
C        2.49060000      -2.09280000       2.63690000
O        3.19170000      -2.65470000       3.45630000
C        2.74920000      -0.64050000       2.23390000
O        2.07960000      -0.22420000       1.05840000
H        1.00260000       1.83030000      -0.06220000
H       -0.54940000       1.65980000      -0.93010000
H       -0.53120000       1.75700000       0.85210000
H        0.26150000      -0.16500000       2.02610000
H       -0.48420000      -2.35700000       1.20540000
H        0.84050000      -2.40450000       0.02260000
H        1.25990000      -3.64410000       2.30620000
H        2.47870000      -0.00800000       3.09560000
H        3.82020000      -0.52420000       2.05920000
