18
Properties=species:S:1:pos:R:3 gdb_35755=T pbc="F F F"
C       -0.01960000      -1.22910000      -0.33390000
C       -0.01730000      -0.04670000      -0.12210000
C       -0.00090000       1.40210000       0.09570000
N       -0.65480000       1.77840000       1.37340000
C        0.28710000       1.96420000       2.49390000
C        1.66210000       2.41460000       1.99720000
C        1.54450000       3.30880000       0.74400000
C        1.45150000       1.93470000       0.05120000
O        2.17150000       1.33280000       1.15830000
H       -0.02430000      -2.27680000      -0.50660000
H       -0.57340000       1.87720000      -0.71190000
H       -1.16180000       2.64060000       1.22270000
H       -0.14820000       2.68630000       3.19320000
H        0.41980000       1.01640000       3.02960000
H        2.35650000       2.68220000       2.79850000
H        0.70190000       3.99990000       0.66460000
H        2.48010000       3.81830000       0.51210000
H        1.93780000       1.76170000      -0.91190000
