17
Properties=species:S:1:pos:R:3 gdb_94506=T pbc="F F F"
O        0.46820000       1.25350000      -0.30530000
C        0.12470000       0.02380000       0.24440000
C       -0.47640000      -0.07240000       1.67050000
C       -1.38040000      -1.22860000       1.17310000
C       -1.13480000      -0.76390000      -0.30720000
C       -2.15550000       0.12810000      -0.80510000
C       -2.96970000       0.93880000      -1.18700000
C       -3.96220000       1.86500000      -1.66510000
O       -4.01110000       3.03390000      -1.35430000
H       -0.32570000       1.80220000      -0.33810000
H        1.00620000      -0.61600000       0.14630000
H        0.20890000      -0.26800000       2.49720000
H       -1.06450000       0.82100000       1.90100000
H       -0.93590000      -2.21230000       1.33890000
H       -2.41640000      -1.24320000       1.51060000
H       -0.92680000      -1.55260000      -1.03510000
H       -4.70260000       1.42040000      -2.36040000
