19
Properties=species:S:1:pos:R:3 gdb_15445=T pbc="F F F"
O        0.26750000       1.30150000      -0.37980000
C        0.12250000      -0.05100000       0.00050000
C       -1.34130000      -0.39460000       0.27390000
N       -2.11020000      -0.04040000      -0.92200000
C       -2.46840000      -1.09140000      -1.87420000
C       -3.51350000      -0.41670000      -1.05430000
C       -4.28990000      -1.16030000       0.01350000
O       -3.67730000      -2.40490000       0.31430000
H       -0.47460000       1.46480000      -0.97880000
H        0.51410000      -0.73120000      -0.77600000
H        0.72060000      -0.20800000       0.90500000
H       -1.45430000      -1.44580000       0.56790000
H       -1.70190000       0.23290000       1.09830000
H       -2.34840000      -0.84660000      -2.92620000
H       -2.23160000      -2.11680000      -1.60360000
H       -4.11980000       0.35770000      -1.52400000
H       -4.36620000      -0.52920000       0.91360000
H       -5.31450000      -1.30780000      -0.36430000
H       -4.10870000      -2.77250000       1.09110000
