16
Properties=species:S:1:pos:R:3 gdb_20603=T pbc="F F F"
C       -0.02910000       1.56020000       0.01080000
C       -0.03570000       0.06500000      -0.00480000
C       -0.07820000      -0.78880000      -1.09360000
N       -0.20440000      -0.55260000      -2.46920000
N       -0.03910000      -2.05390000      -0.61120000
N        0.01540000      -2.09730000       0.75580000
C        0.01030000      -0.82040000       1.10970000
N       -0.00030000      -0.44510000       2.45600000
H        0.79520000       1.96190000       0.61470000
H        0.09740000       1.97110000      -0.99730000
H       -0.95660000       1.98010000       0.41940000
H       -0.29920000       0.43510000      -2.66720000
H        0.57500000      -0.91800000      -3.00580000
H       -0.21350000      -2.89980000      -1.12380000
H        0.24310000      -1.22680000       3.05220000
H        0.60370000       0.34270000       2.65340000
