22
Properties=species:S:1:pos:R:3 gdb_98687=T pbc="F F F"
C       -0.19790000       1.36080000      -0.00410000
N       -0.04510000      -0.06960000       0.16650000
C        1.05750000      -0.63020000       0.74980000
O        1.99770000       0.04060000       1.15350000
C        1.00940000      -2.12320000       0.84330000
C        2.31710000      -2.87420000       1.00390000
C        1.34950000      -2.85720000       2.14830000
C        1.69540000      -2.07040000       3.39780000
C        0.55140000      -4.12150000       2.41240000
H       -0.37070000       1.61950000      -1.05470000
H       -1.02940000       1.75340000       0.59330000
H        0.72920000       1.82670000       0.33170000
H       -0.79620000      -0.67380000      -0.12080000
H        0.24210000      -2.59960000       0.23900000
H        2.44670000      -3.78860000       0.43450000
H        3.19520000      -2.24220000       1.07970000
H        2.22800000      -1.15070000       3.15480000
H        0.78940000      -1.80620000       3.95650000
H        2.32350000      -2.67840000       4.05930000
H        1.10790000      -4.79630000       3.07340000
H       -0.40230000      -3.89270000       2.90240000
H        0.33400000      -4.66620000       1.48800000
