16
Properties=species:S:1:pos:R:3 gdb_55573=T pbc="F F F"
N        0.09600000       1.26340000       0.05570000
C       -0.31920000      -0.00350000       0.41950000
O       -0.43710000      -0.34480000       1.58040000
N       -0.53550000      -0.83170000      -0.67200000
C       -0.94050000      -2.17040000      -0.70980000
N       -0.96240000      -2.71260000      -1.85890000
C       -1.32200000      -2.81900000       0.61830000
C       -1.76310000      -4.19710000       0.46120000
C       -2.12550000      -5.33540000       0.33020000
H        0.08590000       1.92000000       0.82020000
H       -0.17790000       1.64160000      -0.83750000
H       -0.28820000      -0.49580000      -1.59240000
H       -1.28040000      -3.67820000      -1.78470000
H       -0.47060000      -2.75430000       1.30290000
H       -2.09800000      -2.21490000       1.10060000
H       -2.44720000      -6.34250000       0.22970000
