17
Properties=species:S:1:pos:R:3 gdb_46334=T pbc="F F F"
O       -0.42980000       0.24570000      -0.43170000
C       -0.17980000       1.34040000      -0.04520000
O       -1.01010000       2.22500000       0.59660000
C        0.01890000       3.26530000       0.63950000
C        1.04090000       2.29590000       0.00000000
C        2.24620000       1.79130000       0.81740000
C        3.44390000       2.39410000       0.06450000
C        2.91950000       2.39960000      -1.37020000
O        1.52820000       2.71410000      -1.25280000
H       -0.24950000       4.10820000       0.00070000
H        0.20490000       3.58510000       1.66700000
H        2.19060000       2.08160000       1.86820000
H        2.27710000       0.69800000       0.77100000
H        3.63940000       3.41740000       0.40050000
H        4.36000000       1.81160000       0.18380000
H        3.37600000       3.15750000      -2.01190000
H        3.04530000       1.41650000      -1.84520000
