18
Properties=species:S:1:pos:R:3 gdb_112279=T pbc="F F F"
C       -0.11690000       1.42890000       0.35930000
O       -0.16000000       0.21550000      -0.37910000
C       -1.35090000      -0.48980000      -0.20830000
C       -1.37580000      -1.87300000      -0.89580000
C       -0.07880000      -2.40510000      -1.47320000
O       -0.18120000      -3.79290000      -1.73040000
O       -1.64740000      -2.50730000       0.41100000
C       -1.52890000      -1.30190000       1.07370000
N       -1.54980000      -1.02940000       2.29670000
H        0.84660000       1.89370000       0.14180000
H       -0.92390000       2.10860000       0.04680000
H       -0.20530000       1.24400000       1.43570000
H       -2.22730000       0.13620000      -0.43310000
H       -2.21510000      -2.06000000      -1.56980000
H        0.12360000      -1.91370000      -2.42990000
H        0.75100000      -2.16820000      -0.79440000
H       -0.38670000      -4.21710000      -0.88930000
H       -1.66080000      -1.86830000       2.86990000
