12
Properties=species:S:1:pos:R:3 gdb_131040=T pbc="F F F"
O       -0.03760000      -0.05900000      -0.00170000
C       -0.03150000       1.13340000       0.00730000
N        1.17410000       1.92100000       0.00030000
N        2.33550000       1.20000000      -0.01780000
N        3.44280000       1.80790000      -0.02520000
C        3.47450000       3.19680000      -0.01500000
C        2.37250000       3.97280000       0.00290000
C        1.06650000       3.34630000       0.01220000
O       -0.00920000       3.90500000       0.02820000
H       -0.90980000       1.79010000       0.02170000
H        4.47720000       3.60910000      -0.02270000
H        2.41060000       5.05510000       0.01070000
