18
Properties=species:S:1:pos:R:3 gdb_71671=T pbc="F F F"
C        0.05110000       1.50950000      -0.09460000
C       -0.04700000       0.01340000      -0.01690000
O        0.41060000      -0.70240000      -1.21190000
C       -0.33320000      -1.81770000      -0.64420000
C        0.41820000      -2.14930000       0.66920000
C        0.63840000      -0.75860000       1.14660000
N       -0.31680000      -1.64210000       1.84930000
C       -1.66850000      -1.26500000       1.37710000
C       -1.36580000      -0.82820000      -0.03530000
H        1.09880000       1.82200000      -0.15880000
H       -0.47400000       1.88820000      -0.97520000
H       -0.38500000       1.96840000       0.79850000
H       -0.56170000      -2.61040000      -1.35420000
H        1.09180000      -2.98620000       0.79680000
H        1.50320000      -0.39230000       1.68540000
H       -2.33650000      -2.13060000       1.43940000
H       -2.07060000      -0.46580000       2.00890000
H       -2.15270000      -0.47520000      -0.69740000
