18
Properties=species:S:1:pos:R:3 gdb_77014=T pbc="F F F"
C       -0.13280000       1.45590000       0.65680000
C        0.09110000       0.02050000       0.23770000
C        0.38930000      -0.36010000      -1.19250000
C        0.52750000       0.65600000      -2.19830000
C        0.64690000       1.48770000      -3.06000000
N        1.39310000      -0.53060000      -0.12100000
C        2.57530000       0.33720000      -0.11020000
C        3.69400000      -0.30110000      -0.79850000
C        4.62180000      -0.80840000      -1.36780000
H        0.25140000       1.62980000       1.66790000
H        0.33430000       2.16990000      -0.02350000
H       -1.20660000       1.66800000       0.67180000
H       -0.51130000      -0.69530000       0.79650000
H       -0.00000000      -1.30470000      -1.56610000
H        0.75170000       2.21540000      -3.82630000
H        2.40170000       1.32430000      -0.56240000
H        2.84170000       0.50560000       0.94050000
H        5.43980000      -1.26030000      -1.87160000
