17
Properties=species:S:1:pos:R:3 gdb_29834=T pbc="F F F"
C        0.00840000       1.44740000       0.03050000
N        0.01290000      -0.00270000       0.01510000
C        0.00190000      -0.77210000      -1.11050000
C        0.01210000      -2.10060000      -0.72440000
C        0.03040000      -2.11870000       0.70480000
C        0.03070000      -0.81570000       1.13740000
C        0.04630000      -0.25720000       2.52120000
C        0.00530000      -3.21700000      -1.59410000
N       -0.00010000      -4.13630000      -2.30000000
H        0.90560000       1.83780000       0.52100000
H       -0.01290000       1.81240000      -0.99710000
H       -0.87170000       1.83150000       0.55540000
H       -0.01240000      -0.33170000      -2.09400000
H        0.04180000      -2.99740000       1.33000000
H        0.92940000       0.36580000       2.70980000
H       -0.83670000       0.35840000       2.73270000
H        0.05910000      -1.07530000       3.24410000
