16
Properties=species:S:1:pos:R:3 gdb_77110=T pbc="F F F"
O        0.30670000       0.93950000      -0.55880000
C       -0.07250000      -0.33800000      -0.14920000
C       -0.04200000      -0.67820000       1.39480000
C       -1.44380000      -1.35610000       1.23120000
C       -1.57510000      -0.59240000      -0.08810000
C       -2.62890000       0.31880000      -0.53130000
O       -2.38210000      -0.94150000      -1.18320000
C        1.06230000      -1.47320000       1.89170000
N        1.95270000      -2.11550000       2.25600000
H        1.23580000       0.93090000      -0.80920000
H        0.42990000      -1.13140000      -0.71710000
H       -0.12120000       0.25430000       1.95890000
H       -1.35910000      -2.43380000       1.07380000
H       -2.17550000      -1.15800000       2.01460000
H       -3.56040000       0.37630000       0.02940000
H       -2.36120000       1.19960000      -1.11000000
