23
Properties=species:S:1:pos:R:3 gdb_114888=T pbc="F F F"
C        0.20810000       1.31810000      -0.24910000
C        0.02660000      -0.17520000       0.04200000
C       -1.43570000      -0.60270000       0.06030000
C       -2.24620000      -0.60180000      -1.27280000
C       -2.75260000      -2.04360000      -0.96540000
C       -2.28750000      -3.16020000      -1.90220000
C       -0.80920000      -3.31710000      -1.51370000
O       -0.73700000      -3.03200000      -0.11880000
C       -1.76520000      -2.11850000       0.23820000
H        1.26720000       1.59330000      -0.27160000
H       -0.22580000       1.59090000      -1.21760000
H       -0.28010000       1.93410000       0.51460000
H        0.57090000      -0.76650000      -0.70350000
H        0.48330000      -0.42290000       1.00850000
H       -1.97180000      -0.02940000       0.82670000
H       -3.02100000       0.16250000      -1.36520000
H       -1.61370000      -0.55100000      -2.16590000
H       -3.81330000      -2.10140000      -0.71770000
H       -2.83470000      -4.08510000      -1.69230000
H       -2.41830000      -2.91890000      -2.96130000
H       -0.41880000      -4.32710000      -1.66870000
H       -0.17810000      -2.61980000      -2.08620000
H       -2.13560000      -2.41550000       1.22330000
