18
Properties=species:S:1:pos:R:3 gdb_41519=T pbc="F F F"
C       -0.01680000       1.55220000       0.00180000
C        1.54520000       1.52250000       0.00540000
C        1.44200000       0.09250000       0.50300000
C        2.15410000      -0.68160000       1.30560000
C        1.66870000      -1.99410000       1.85070000
O        0.45960000      -2.50260000       1.27660000
C       -0.70460000      -1.78790000       1.38410000
N       -0.99670000      -0.68130000       0.85550000
C       -0.00520000      -0.00640000       0.05100000
H       -0.41500000       1.95940000       0.93340000
H       -0.51650000       2.02330000      -0.84660000
H        1.96030000       1.59180000      -1.00620000
H        2.06680000       2.23940000       0.64390000
H        3.13770000      -0.37160000       1.65490000
H        2.40960000      -2.78280000       1.67630000
H        1.54080000      -1.91850000       2.94240000
H       -1.46630000      -2.33650000       1.94070000
H       -0.07230000      -0.40260000      -0.97270000
