18
Properties=species:S:1:pos:R:3 gdb_13489=T pbc="F F F"
C        0.03960000       1.55900000       0.04180000
C        0.02930000       0.02920000       0.03700000
O        0.75940000      -0.50430000       1.13900000
C       -1.39470000      -0.53630000       0.01280000
C       -1.61410000      -2.08360000       0.01130000
C       -2.67260000      -1.94740000       1.14900000
C       -2.15200000      -0.52140000       1.35490000
O       -2.14720000       0.23900000       2.28430000
H        1.06810000       1.92600000       0.09730000
H       -0.42400000       1.96040000      -0.86540000
H       -0.51800000       1.93990000       0.90380000
H        0.56210000      -0.33740000      -0.84930000
H        0.40240000      -0.09890000       1.93870000
H       -1.99050000      -0.04900000      -0.76830000
H       -1.96050000      -2.52310000      -0.92430000
H       -0.71590000      -2.60040000       0.35370000
H       -3.70190000      -1.94560000       0.77480000
H       -2.61290000      -2.61580000       2.01110000
