19
Properties=species:S:1:pos:R:3 gdb_65534=T pbc="F F F"
C       -0.07800000       1.53580000       0.01130000
C        0.04260000       0.00620000       0.00960000
C        0.96130000      -0.59080000      -1.13690000
C        1.95450000      -1.33330000      -0.22600000
C        1.00000000      -1.94600000       0.82750000
N        0.72650000      -0.50830000       1.25310000
C        2.18590000      -0.28000000       0.87970000
C       -1.31570000      -0.55500000      -0.05150000
N       -2.38840000      -0.97830000      -0.12920000
H        0.90600000       2.00870000       0.01050000
H       -0.61490000       1.87200000      -0.87970000
H       -0.62500000       1.86780000       0.89670000
H        0.41690000      -1.25430000      -1.81170000
H        1.42950000       0.20030000      -1.72860000
H        2.76050000      -1.88940000      -0.70720000
H        0.12260000      -2.50840000       0.49990000
H        1.50820000      -2.47390000       1.63600000
H        2.81820000      -0.62480000       1.69970000
H        2.45950000       0.74060000       0.60560000
