17
Properties=species:S:1:pos:R:3 gdb_85701=T pbc="F F F"
O        0.71880000       0.39490000      -1.08910000
C        0.13480000      -0.41950000      -0.11090000
C        0.22500000      -0.02730000       1.39520000
C       -1.24950000      -0.52370000       1.59220000
C       -2.14750000       0.25510000       2.41650000
C       -2.89410000       0.92350000       3.08200000
C       -1.38910000      -0.45130000       0.05310000
C       -2.39400000       0.26070000      -0.73410000
O       -2.30470000      -1.17610000      -0.72670000
H        0.41050000       1.29710000      -0.95020000
H        0.52330000      -1.42780000      -0.28540000
H        0.99370000      -0.50880000       1.99980000
H        0.29090000       1.05680000       1.51990000
H       -1.25790000      -1.57410000       1.90340000
H       -3.55210000       1.50370000       3.68020000
H       -3.26560000       0.67670000      -0.23290000
H       -2.10500000       0.73220000      -1.67220000
