15
Properties=species:S:1:pos:R:3 gdb_45573=T pbc="F F F"
O        0.09000000      -0.01860000      -0.04240000
C        0.03930000       1.16740000      -0.00940000
O       -1.10990000       1.88780000       0.09340000
C       -0.83450000       3.28970000       0.09880000
C       -1.18220000       3.93160000       1.44470000
C        0.12860000       3.78370000       2.22630000
O        1.14990000       3.94310000       1.22940000
C        0.71590000       3.36720000       0.04580000
O        1.11240000       1.99690000      -0.07380000
H       -1.33810000       3.74370000      -0.75590000
H       -1.41760000       4.98930000       1.29570000
H       -2.03770000       3.44230000       1.91260000
H        0.28760000       4.55500000       2.98120000
H        0.21020000       2.79980000       2.70590000
H        1.16290000       3.91040000      -0.78720000
