18
Properties=species:S:1:pos:R:3 gdb_111632=T pbc="F F F"
C       -0.10390000       1.51960000      -0.04940000
C       -0.03080000       0.01810000       0.02700000
N       -0.71100000      -0.70900000      -1.03160000
C       -1.17150000      -1.76710000      -0.50120000
O       -0.97350000      -1.97530000       0.83000000
C       -0.21860000      -0.84540000       1.26750000
C        1.15660000      -0.69760000       0.67350000
C        1.89950000      -1.87380000       0.07340000
O        2.19260000      -2.87520000       1.03800000
H        0.41780000       1.88180000      -0.94070000
H       -1.14410000       1.85510000      -0.10750000
H        0.35960000       1.97930000       0.82820000
H       -1.72230000      -2.55140000      -1.00610000
H       -0.48110000      -0.53030000       2.26950000
H        1.78040000      -0.02710000       1.25960000
H        1.34730000      -2.28790000      -0.77960000
H        2.86720000      -1.53460000      -0.30850000
H        1.34840000      -3.21340000       1.35570000
