20
Properties=species:S:1:pos:R:3 gdb_63272=T pbc="F F F"
C       -0.41660000       1.50130000       0.14140000
C       -0.01740000       0.03320000       0.00910000
C       -1.19810000      -0.83060000      -0.44270000
C        1.27640000      -0.22370000      -0.84440000
C        1.90380000      -0.94910000       0.36270000
O        2.92070000      -1.55530000       0.53940000
C        0.72800000      -0.57410000       1.23470000
C        0.79190000      -0.06350000       2.63390000
N        0.21100000      -1.37630000       2.34630000
H        0.42920000       2.11820000       0.46040000
H       -0.77960000       1.89410000      -0.81490000
H       -1.22220000       1.63120000       0.87370000
H       -1.57260000      -0.49660000      -1.41620000
H       -0.91330000      -1.88390000      -0.53270000
H       -2.03180000      -0.76890000       0.26700000
H        1.15100000      -0.84350000      -1.73640000
H        1.82290000       0.68280000      -1.12260000
H        1.74230000      -0.09000000       3.15980000
H        0.13710000       0.76390000       2.89610000
H       -0.80630000      -1.32000000       2.35440000
