17
Properties=species:S:1:pos:R:3 gdb_77023=T pbc="F F F"
C       -1.79370000       0.81350000      -0.74770000
N       -0.82890000      -0.25770000      -0.51440000
C        0.36650000      -0.37630000      -1.32400000
C        0.72700000       0.58590000      -2.45110000
C       -0.01130000       0.29130000      -3.67500000
C       -0.62720000       0.03010000      -4.67310000
C        0.46150000       0.04000000       0.12290000
C        0.83390000       1.39770000       0.43820000
N        1.11860000       2.48700000       0.70630000
H       -1.35410000       1.80490000      -0.91610000
H       -2.39490000       0.54350000      -1.61920000
H       -2.45040000       0.87840000       0.12400000
H        0.63400000      -1.40890000      -1.54190000
H        0.56030000       1.62480000      -2.15030000
H        1.80450000       0.49800000      -2.63990000
H       -1.16750000      -0.18980000      -5.56050000
H        0.78310000      -0.68170000       0.86950000
