17
Properties=species:S:1:pos:R:3 gdb_47370=T pbc="F F F"
O       -0.04600000      -0.06540000       0.16990000
C       -0.05250000       1.13580000       0.05840000
C       -1.32550000       1.96790000       0.07410000
C       -1.31010000       3.04770000      -1.01970000
N       -0.07990000       3.83770000      -0.90730000
C        1.13030000       3.05510000      -1.13940000
C        1.23700000       1.94460000      -0.06870000
C        1.19490000       2.47940000      -2.50730000
N        1.20430000       2.07160000      -3.58920000
H       -2.18510000       1.30210000      -0.02610000
H       -1.38060000       2.46300000       1.05260000
H       -1.41710000       2.56950000      -2.00730000
H       -2.15930000       3.72410000      -0.89000000
H       -0.10900000       4.62750000      -1.54270000
H        1.99220000       3.72320000      -1.03820000
H        1.41170000       2.44470000       0.89140000
H        2.06860000       1.26750000      -0.26970000
