22
Properties=species:S:1:pos:R:3 gdb_111549=T pbc="F F F"
C        0.19950000       1.57680000       0.11130000
C       -0.14010000       0.08880000      -0.03440000
C        0.62290000      -0.57360000      -1.17330000
N        2.15300000      -0.57290000      -1.15120000
C        2.47520000      -1.36510000       0.10290000
C        1.85550000      -2.58810000      -0.54400000
C        2.06540000      -1.93400000      -1.88160000
C        0.65770000      -2.08310000      -1.38550000
C       -0.43210000      -2.99460000      -1.86730000
H        1.26610000       1.71780000       0.30910000
H       -0.03700000       2.12460000      -0.80740000
H       -0.36450000       2.03460000       0.92960000
H        0.03750000      -0.43500000       0.91080000
H       -1.21200000      -0.02900000      -0.24250000
H        0.34640000      -0.08370000      -2.11630000
H        3.56260000      -1.44670000       0.18720000
H        2.07260000      -0.96170000       1.03740000
H        1.95060000      -3.63700000      -0.28930000
H        2.58780000      -2.19890000      -2.79010000
H       -0.03750000      -3.98050000      -2.13550000
H       -1.19870000      -3.14590000      -1.09860000
H       -0.92630000      -2.58380000      -2.75530000
