16
Properties=species:S:1:pos:R:3 gdb_24701=T pbc="F F F"
C        0.01630000       1.45010000       0.12710000
C        1.48190000       1.89150000      -0.11460000
C        2.22670000       0.57890000      -0.03000000
N        3.52870000       0.39460000       0.07000000
C        3.91320000      -0.89580000       0.09650000
N        3.12700000      -1.96440000       0.03410000
C        1.80500000      -1.75990000      -0.07300000
C        1.29680000      -0.46970000      -0.11260000
N        0.00590000       0.02160000      -0.26110000
H       -0.24790000       1.57420000       1.18730000
H       -0.70240000       2.01600000      -0.47020000
H        1.60540000       2.32300000      -1.11540000
H        1.83200000       2.63210000       0.60690000
H        4.98030000      -1.07790000       0.18540000
H        1.16880000      -2.64100000      -0.12000000
H       -0.75130000      -0.53670000       0.10590000
