27
Properties=species:S:1:pos:R:3 gdb_64475=T pbc="F F F"
C        0.19330000       1.55020000       0.32120000
C       -0.10560000       0.06460000       0.03000000
C       -1.62700000      -0.14770000       0.13160000
C        0.42250000      -0.24190000      -1.39550000
C       -0.07480000      -1.50060000      -2.13220000
C       -0.00310000      -2.86300000      -1.39960000
C        1.00730000      -2.97960000      -0.24890000
C        0.54880000      -2.29680000       1.05020000
C        0.65670000      -0.76620000       1.09240000
H        1.26190000       1.76740000       0.21220000
H       -0.35150000       2.20460000      -0.36830000
H       -0.09940000       1.82190000       1.34150000
H       -2.15620000       0.46400000      -0.60790000
H       -1.92010000      -1.18770000      -0.03270000
H       -1.99200000       0.14530000       1.12260000
H        0.17900000       0.61200000      -2.04130000
H        1.51910000      -0.26170000      -1.34550000
H       -1.10800000      -1.33800000      -2.46070000
H        0.51310000      -1.56560000      -3.05600000
H       -0.99150000      -3.11670000      -0.99570000
H        0.21080000      -3.63880000      -2.14400000
H        1.15870000      -4.04520000      -0.03730000
H        1.98920000      -2.59270000      -0.55360000
H       -0.48320000      -2.60740000       1.26190000
H        1.14910000      -2.68520000       1.88270000
H        1.71970000      -0.49470000       1.02210000
H        0.32960000      -0.43220000       2.08640000
