17
Properties=species:S:1:pos:R:3 gdb_1926=T pbc="F F F"
C       -0.08400000       1.50660000      -0.00240000
C        0.03520000       0.00940000      -0.01630000
C        0.73280000      -0.80110000      -1.13960000
C       -0.30360000      -1.82200000      -0.63040000
C        0.20200000      -2.19040000       0.78010000
C        0.47290000      -0.73410000       1.27150000
O       -1.20590000      -0.70820000      -0.35020000
H        0.88900000       1.96390000       0.20590000
H       -0.44490000       1.87990000      -0.96480000
H       -0.78360000       1.82820000       0.77630000
H        0.47940000      -0.41790000      -2.12910000
H        1.79950000      -1.02790000      -1.05600000
H       -0.73870000      -2.59970000      -1.25780000
H       -0.57180000      -2.69590000       1.36150000
H        1.09490000      -2.82150000       0.76300000
H        1.51810000      -0.54700000       1.53400000
H       -0.15500000      -0.44930000       2.11900000
