19
Properties=species:S:1:pos:R:3 gdb_108215=T pbc="F F F"
O       -0.12800000       1.41840000       0.01380000
C       -0.03800000      -0.00210000       0.00550000
C       -1.44530000      -0.54930000       0.01010000
C       -2.31240000      -0.18610000      -1.21680000
O       -3.41040000      -1.12140000      -1.14530000
C       -3.15890000      -1.89950000       0.01200000
C       -1.63950000      -2.08200000       0.00290000
O       -3.39790000      -1.13400000       1.18030000
C       -2.29910000      -0.19940000       1.25010000
H        0.76320000       1.77950000       0.01120000
H        0.49690000      -0.36170000      -0.88800000
H        0.50650000      -0.37150000       0.88910000
H       -2.69220000       0.83890000      -1.17680000
H       -1.77050000      -0.32630000      -2.16170000
H       -3.81970000      -2.76450000       0.01090000
H       -1.26950000      -2.57250000      -0.90030000
H       -1.25980000      -2.58220000       0.89660000
H       -1.74710000      -0.34970000       2.18750000
H       -2.67930000       0.82590000       1.22520000
