18
Properties=species:S:1:pos:R:3 gdb_110732=T pbc="F F F"
C        0.06740000       1.58820000       0.00980000
C        0.05730000       0.08840000       0.03300000
C       -0.94360000      -0.76690000       0.82500000
C       -1.83010000      -1.82830000       0.22460000
O       -2.09560000      -2.78790000       1.23980000
C        0.52900000      -0.93170000       1.06320000
N        1.18830000      -1.70030000       0.00490000
C        0.70890000      -0.83690000      -0.99760000
O        0.80480000      -0.86600000      -2.19240000
H        1.07800000       1.97420000      -0.15740000
H       -0.57020000       1.96700000      -0.79600000
H       -0.30370000       2.00200000       0.95230000
H       -1.43830000      -0.18980000       1.60540000
H       -2.75770000      -1.35820000      -0.13610000
H       -1.34600000      -2.29200000      -0.64670000
H       -2.75350000      -3.40420000       0.90380000
H        1.02690000      -0.75670000       2.00780000
H        1.14050000      -2.71080000      -0.06920000
