18
Properties=species:S:1:pos:R:3 gdb_56692=T pbc="F F F"
O       -0.39940000       1.20540000       0.04500000
C       -0.04980000      -0.15710000       0.09050000
C        0.54380000      -0.60860000      -1.19140000
N        0.99210000      -0.96480000      -2.19470000
C        0.90830000      -0.44330000       1.26100000
O        1.99760000       0.42380000       1.02590000
C        0.18070000      -0.37450000       2.63250000
C        0.07430000      -1.92480000       2.60720000
C        1.16960000      -1.95510000       1.50500000
H        0.43200000       1.69200000       0.13130000
H       -0.97840000      -0.71790000       0.23820000
H        2.58160000       0.40830000       1.79000000
H        0.86600000      -0.02870000       3.41340000
H       -0.73240000       0.22210000       2.68180000
H        0.29480000      -2.44980000       3.53750000
H       -0.89540000      -2.27020000       2.24080000
H        1.04680000      -2.63200000       0.65620000
H        2.16940000      -2.10450000       1.92360000
