15
Properties=species:S:1:pos:R:3 gdb_17777=T pbc="F F F"
O       -0.13200000      -0.08900000       0.32780000
C       -0.09370000       1.09740000       0.09250000
N        1.03900000       1.82080000      -0.15760000
C        2.34880000       1.23660000      -0.16950000
C        3.40590000       1.58080000      -1.26340000
C        3.61620000       2.98390000      -0.64010000
C        3.57720000       1.93030000       0.49560000
O        4.43200000       1.05840000      -0.33700000
H       -0.99800000       1.73690000       0.05460000
H        0.92860000       2.80550000      -0.33950000
H        2.26360000       0.17490000       0.04960000
H        3.45720000       1.26580000      -2.30570000
H        4.59830000       3.42100000      -0.82260000
H        2.81750000       3.72880000      -0.71050000
H        3.83270000       2.03200000       1.55030000
