17
Properties=species:S:1:pos:R:3 gdb_52491=T pbc="F F F"
C        0.07270000       1.53040000       0.03430000
C        0.04290000       0.07970000      -0.00730000
C        0.01430000      -1.12980000      -0.04120000
C       -0.01670000      -2.48860000      -0.07940000
C       -0.04700000      -3.69750000      -0.11280000
C       -0.06940000      -5.14560000      -0.15620000
C       -1.44960000      -5.78370000       0.11070000
C       -1.46860000      -7.30070000       0.04420000
O       -2.43030000      -5.12960000       0.35190000
H        1.07330000       1.91380000      -0.19590000
H       -0.62450000       1.96200000      -0.69280000
H       -0.20700000       1.90420000       1.02580000
H        0.28260000      -5.51220000      -1.13160000
H        0.63540000      -5.56810000       0.57500000
H       -0.75750000      -7.72670000       0.76080000
H       -2.47290000      -7.66410000       0.26290000
H       -1.16240000      -7.64330000      -0.95070000
