18
Properties=species:S:1:pos:R:3 gdb_97162=T pbc="F F F"
C       -0.29730000       1.45990000       0.01550000
N       -0.22470000       0.00750000       0.05520000
C        0.64630000      -0.55530000       0.77020000
C        0.72250000      -2.06400000       0.86630000
O        2.06850000      -2.50530000       1.00550000
C        2.62260000      -2.00390000       2.18310000
C        3.74010000      -1.00250000       2.04240000
C        2.35840000      -0.54890000       2.43650000
O        1.59480000       0.14270000       1.47520000
H        0.29330000       1.83930000      -0.82790000
H       -1.33580000       1.75650000      -0.15770000
H        0.06980000       1.94670000       0.92640000
H        0.11120000      -2.42180000       1.70920000
H        0.32380000      -2.48940000      -0.05390000
H        2.62370000      -2.70080000       3.02040000
H        4.52210000      -0.98350000       2.79290000
H        4.05080000      -0.77720000       1.02880000
H        2.17510000      -0.18810000       3.44360000
