19
Properties=species:S:1:pos:R:3 gdb_54173=T pbc="F F F"
C        0.16540000       1.25350000       0.63620000
C       -0.02510000       0.07150000      -0.29460000
O        0.82840000      -0.23190000      -1.10160000
C       -1.30970000      -0.72130000      -0.17020000
C       -2.49550000      -0.05750000       0.50730000
C       -1.56720000      -1.72380000      -1.25510000
C       -1.15600000      -2.24280000       0.10320000
C        0.16100000      -2.90800000       0.28610000
O        0.33630000      -3.79480000       1.08820000
H        1.15070000       1.68660000       0.46390000
H       -0.60430000       2.01360000       0.46540000
H        0.07540000       0.93970000       1.68210000
H       -2.79540000       0.85280000      -0.02330000
H       -3.35650000      -0.73150000       0.51200000
H       -2.28130000       0.21080000       1.54610000
H       -2.59280000      -1.89050000      -1.56380000
H       -0.82130000      -1.77340000      -2.04060000
H       -1.92770000      -2.66000000       0.74260000
H        0.97360000      -2.55120000      -0.37530000
