25
Properties=species:S:1:pos:R:3 gdb_101337=T pbc="F F F"
C        0.34450000       1.67850000       0.01950000
C       -0.14660000       0.23350000      -0.12950000
C        0.51960000      -0.48310000      -1.28780000
C        1.84650000      -1.19080000      -1.12770000
C        0.59780000      -1.98680000      -1.42510000
C        0.02150000      -2.98900000      -0.43550000
C        0.40870000      -4.41960000      -0.83290000
O        0.48760000      -2.67650000       0.87370000
C       -0.27830000      -3.22570000       1.92050000
H        1.42350000       1.70910000       0.20430000
H        0.14900000       2.26100000      -0.88820000
H       -0.15450000       2.18430000       0.85240000
H        0.03670000      -0.32060000       0.79410000
H       -1.23510000       0.23600000      -0.28120000
H        0.39070000       0.03460000      -2.23750000
H        2.60080000      -1.09080000      -1.90080000
H        2.23680000      -1.27310000      -0.11980000
H        0.50440000      -2.34850000      -2.44620000
H       -1.07980000      -2.90650000      -0.44280000
H        0.01960000      -4.65920000      -1.82750000
H        1.49800000      -4.52140000      -0.85220000
H        0.00320000      -5.15650000      -0.13390000
H        0.13440000      -2.83980000       2.85610000
H       -1.33600000      -2.92730000       1.85030000
H       -0.23210000      -4.32380000       1.94930000
