14
Properties=species:S:1:pos:R:3 gdb_74592=T pbc="F F F"
N        0.07040000       1.32470000      -0.12800000
C       -0.04180000      -0.01240000       0.01880000
N       -1.10790000      -0.72360000      -0.07740000
C       -0.62890000      -2.08580000       0.01560000
C        0.72210000      -2.10990000       0.59630000
C        0.59290000      -2.55350000      -0.87150000
C        1.40550000      -1.36980000      -1.20720000
O        2.08850000      -0.97660000      -2.09620000
N        1.20490000      -0.75450000       0.16770000
H        0.89800000       1.76900000       0.22980000
H       -0.77590000       1.86570000      -0.18780000
H       -1.35670000      -2.86520000       0.20450000
H        1.16420000      -2.62570000       1.43760000
H        0.62150000      -3.53620000      -1.32180000
