19
Properties=species:S:1:pos:R:3 gdb_39140=T pbc="F F F"
C       -0.00180000       1.37490000      -0.25800000
C        1.48830000       1.50080000       0.10990000
C        1.31490000       0.10190000       0.74040000
C        2.16510000      -1.07180000       0.22190000
C        2.05020000      -2.18340000       1.29250000
C        1.79920000      -1.41290000       2.57450000
O        2.68780000      -0.29770000       2.75060000
C        1.36760000      -0.04890000       2.24820000
O       -0.07490000       0.04660000       0.30330000
H       -0.67660000       2.07150000       0.25470000
H       -0.23790000       1.37940000      -1.32850000
H        2.17370000       1.52890000      -0.73920000
H        1.74840000       2.30010000       0.80590000
H        1.81940000      -1.38770000      -0.76450000
H        3.20350000      -0.74140000       0.13250000
H        1.19200000      -2.83660000       1.09800000
H        2.94330000      -2.81310000       1.34590000
H        1.50150000      -1.91720000       3.48990000
H        0.71400000       0.54870000       2.87850000
