25
Properties=species:S:1:pos:R:3 gdb_118965=T pbc="F F F"
C       -0.01530000       1.53190000      -0.23880000
C        0.05490000       0.02580000      -0.04160000
O       -1.21070000      -0.51890000      -0.36700000
C       -1.41290000      -1.87940000      -0.03840000
C       -0.52310000      -2.80680000      -0.86680000
C       -1.42990000      -2.24160000       1.48040000
C       -2.75770000      -3.01030000       1.24410000
C       -2.92300000      -2.27810000      -0.12110000
C       -3.90740000      -1.11330000      -0.08870000
H        0.95140000       1.99310000      -0.01410000
H       -0.28090000       1.76950000      -1.27300000
H       -0.77270000       1.97120000       0.41670000
H        0.84360000      -0.40090000      -0.68020000
H        0.31890000      -0.21200000       1.00100000
H        0.53710000      -2.67420000      -0.62880000
H       -0.77350000      -3.85440000      -0.67320000
H       -0.66660000      -2.61110000      -1.93450000
H       -0.58050000      -2.80470000       1.87590000
H       -1.57890000      -1.34900000       2.09330000
H       -2.60850000      -4.08770000       1.13620000
H       -3.55390000      -2.84570000       1.97430000
H       -3.15530000      -2.92910000      -0.97050000
H       -3.71700000      -0.44730000       0.75820000
H       -3.83930000      -0.51080000      -0.99840000
H       -4.93190000      -1.49100000       0.00060000
