16
Properties=species:S:1:pos:R:3 gdb_25690=T pbc="F F F"
C       -0.04840000       1.45730000       0.04390000
C       -0.00550000       0.00410000       0.00660000
C        0.02460000      -1.20140000      -0.02540000
C        0.05740000      -2.61560000      -0.06100000
C        1.16290000      -3.41900000      -0.19130000
N        0.68160000      -4.71590000      -0.16770000
C       -0.67590000      -4.63650000      -0.02700000
N       -1.48230000      -5.77230000      -0.04810000
N       -1.09240000      -3.39850000       0.04930000
H        0.53340000       1.85590000       0.88330000
H        0.35570000       1.89600000      -0.87590000
H       -1.07740000       1.81670000       0.15610000
H        2.21180000      -3.19550000      -0.28050000
H        1.21390000      -5.55220000      -0.33680000
H       -1.21440000      -6.47250000       0.63410000
H       -2.44590000      -5.50060000       0.10470000
