20
Properties=species:S:1:pos:R:3 gdb_93114=T pbc="F F F"
C        0.01260000       1.56230000      -0.02130000
C        0.05390000       0.03310000      -0.01100000
C        0.67840000      -0.54110000      -1.29240000
C        0.93180000      -2.02270000      -1.20260000
C        0.91120000      -2.70650000      -0.05990000
C        0.65550000      -2.07710000       1.28390000
C        0.77830000      -0.53510000       1.23930000
C        2.18620000      -0.12120000       1.26660000
N        3.29230000       0.21500000       1.28630000
H        1.02340000       1.98270000      -0.04340000
H       -0.52260000       1.92810000      -0.90340000
H       -0.49630000       1.95430000       0.86560000
H       -0.97440000      -0.34550000       0.05880000
H        0.01760000      -0.32680000      -2.14170000
H        1.62070000      -0.01830000      -1.51380000
H        1.14860000      -2.53970000      -2.13390000
H        1.09060000      -3.77840000      -0.06540000
H       -0.35280000      -2.33250000       1.63830000
H        1.34680000      -2.48310000       2.03080000
H        0.31140000      -0.11510000       2.13840000
