14
Properties=species:S:1:pos:R:3 gdb_14637=T pbc="F F F"
C        0.08090000       1.51730000      -0.03420000
C        0.04090000       0.06370000       0.02930000
C        0.00420000      -1.13710000       0.08140000
C       -0.03770000      -2.59960000       0.14510000
C       -1.38990000      -3.14900000       0.06020000
C       -2.50440000      -3.61220000      -0.00930000
C       -3.75940000      -4.13280000      -0.08760000
C       -4.87230000      -4.59600000      -0.15700000
H        0.67010000       1.86230000      -0.89080000
H       -0.92690000       1.93450000      -0.13470000
H        0.52800000       1.94310000       0.87060000
H        0.57300000      -3.02490000      -0.66430000
H        0.43110000      -2.94490000       1.07790000
H       -5.85110000      -5.00230000      -0.21810000
