21
Properties=species:S:1:pos:R:3 gdb_61450=T pbc="F F F"
C       -0.49230000       1.43590000       0.11280000
C       -0.15340000      -0.06220000       0.08820000
C        0.38540000      -0.45750000      -1.30220000
C        0.38130000      -1.95230000      -1.64620000
N        0.85370000      -2.76760000      -0.66640000
O        0.00850000      -2.35350000      -2.73400000
N        0.79170000      -0.54380000       1.11820000
C        1.80480000       0.33560000       1.69180000
C        0.65390000      -0.14390000       2.50960000
H        0.35690000       2.05030000      -0.20330000
H       -1.31280000       1.63040000      -0.58360000
H       -0.81780000       1.77750000       1.09990000
H       -1.07920000      -0.62160000       0.27360000
H       -0.20890000       0.02460000      -2.08110000
H        1.41180000      -0.07950000      -1.39960000
H        1.05100000      -2.37770000       0.24790000
H        0.82130000      -3.76160000      -0.82200000
H        2.79160000      -0.10170000       1.81430000
H        1.80650000       1.38570000       1.41310000
H       -0.10620000       0.58830000       2.77140000
H        0.78540000      -0.93710000       3.24040000
