16
Properties=species:S:1:pos:R:3 gdb_124327=T pbc="F F F"
C       -0.13620000       1.49130000       0.00630000
C        0.02210000      -0.00790000       0.01660000
O        1.08000000      -0.59330000       0.03290000
N       -1.18050000      -0.73720000       0.00540000
C       -1.28650000      -2.10300000       0.00190000
C       -2.61690000      -2.40240000      -0.01410000
C       -3.27430000      -1.12960000      -0.01620000
N       -4.63740000      -0.90570000      -0.09950000
N       -2.41250000      -0.12800000       0.00210000
H        0.85710000       1.93880000       0.01360000
H       -0.69450000       1.81110000      -0.87720000
H       -0.71150000       1.82150000       0.87490000
H       -0.39900000      -2.71300000       0.00720000
H       -3.07070000      -3.38020000      -0.03300000
H       -5.20530000      -1.58840000       0.38030000
H       -4.89880000       0.04060000       0.14090000
