27
Properties=species:S:1:pos:R:3 gdb_102643=T pbc="F F F"
C       -0.42670000       1.70750000      -0.21430000
C       -0.18730000       0.19770000      -0.10360000
C        0.81540000      -0.38050000      -1.12660000
C        2.24670000       0.02690000      -0.76030000
O        3.08550000      -0.11160000      -1.90260000
C        0.63350000      -1.90960000      -1.22480000
C        1.48300000      -2.68620000      -2.25030000
C        1.20410000      -4.19020000      -2.11610000
C        1.23560000      -2.21420000      -3.68960000
H        0.48520000       2.28850000      -0.04400000
H       -0.80470000       1.97250000      -1.20790000
H       -1.16580000       2.04000000       0.52160000
H        0.14920000      -0.05140000       0.91290000
H       -1.14650000      -0.31770000      -0.23150000
H        0.59880000       0.07150000      -2.10340000
H        2.26240000       1.06850000      -0.40750000
H        2.60220000      -0.60390000       0.07200000
H        3.98250000       0.12280000      -1.64760000
H        0.81460000      -2.33610000      -0.22670000
H       -0.42590000      -2.10880000      -1.44310000
H        2.54060000      -2.51220000      -2.02450000
H        0.15540000      -4.41910000      -2.34320000
H        1.82520000      -4.77110000      -2.80630000
H        1.40750000      -4.54780000      -1.10050000
H        0.17270000      -2.28910000      -3.95270000
H        1.55440000      -1.17870000      -3.82850000
H        1.79460000      -2.83110000      -4.40170000
