21
Properties=species:S:1:pos:R:3 gdb_74974=T pbc="F F F"
C       -0.03060000       1.50130000       0.04570000
C        0.00150000       0.00690000      -0.02650000
C       -0.01660000      -0.74870000      -1.12880000
C        0.01090000      -2.23230000      -0.85370000
C        1.30920000      -2.56350000      -0.06870000
C        1.33280000      -1.69530000       1.21930000
C        0.04860000      -0.83910000       1.23110000
O       -1.08150000      -1.73340000       1.26430000
C       -1.17310000      -2.53780000       0.08950000
H        0.84390000       1.89700000       0.57870000
H       -0.04900000       1.95050000      -0.95160000
H       -0.91410000       1.85140000       0.59460000
H       -0.06970000      -0.35110000      -2.13760000
H       -0.06690000      -2.83480000      -1.76180000
H        1.32260000      -3.62990000       0.18140000
H        2.18190000      -2.36710000      -0.69690000
H        1.34230000      -2.32020000       2.11730000
H        2.21580000      -1.04980000       1.25760000
H       -0.03060000      -0.24190000       2.14230000
H       -2.12960000      -2.33440000      -0.41040000
H       -1.16000000      -3.59630000       0.38760000
