18
Properties=species:S:1:pos:R:3 gdb_52865=T pbc="F F F"
C        0.08580000       1.46040000       0.13780000
C        0.06880000       0.00560000       0.06910000
C        0.03770000      -1.19980000       0.02280000
C        0.01660000      -2.63530000      -0.04220000
C       -0.55670000      -3.42020000       1.14320000
C       -1.33640000      -3.35160000      -0.12120000
C        1.13790000      -3.35060000      -0.77250000
N        2.08410000      -2.54230000      -1.31270000
O        1.16870000      -4.56640000      -0.85700000
H        0.99910000       1.83040000       0.61700000
H        0.02480000       1.91190000      -0.85870000
H       -0.76430000       1.83310000       0.72000000
H       -0.04490000      -4.34860000       1.36520000
H       -0.88250000      -2.83290000       1.99290000
H       -2.21220000      -2.71580000      -0.16350000
H       -1.34890000      -4.23390000      -0.74940000
H        2.02590000      -1.54240000      -1.22390000
H        2.84970000      -2.96590000      -1.80860000
