16
Properties=species:S:1:pos:R:3 gdb_127798=T pbc="F F F"
C        0.11370000       1.42550000       0.19360000
N        0.06700000      -0.02530000       0.15730000
N        0.04780000      -0.66850000      -1.02830000
N       -0.04070000      -1.94560000      -0.78620000
C       -0.08550000      -2.13480000       0.55790000
C       -0.02390000      -0.91060000       1.18750000
C        0.01250000      -0.51120000       2.62960000
C        1.44470000      -0.16290000       3.02770000
O        1.83520000       0.95870000       3.22050000
H        0.86430000       1.76480000       0.91010000
H        0.37150000       1.76380000      -0.80950000
H       -0.86120000       1.83690000       0.47380000
H       -0.16300000      -3.11840000       0.99360000
H       -0.62520000       0.35380000       2.83340000
H       -0.33120000      -1.35500000       3.23680000
H        2.12980000      -1.03630000       3.08840000
