17
Properties=species:S:1:pos:R:3 gdb_47643=T pbc="F F F"
O       -0.32360000       0.07100000       0.13940000
C        0.02670000       1.22310000       0.10190000
O       -0.85400000       2.26840000      -0.00900000
C       -1.59720000       2.30110000      -1.22180000
C       -0.60540000       2.57430000      -2.37340000
C        0.27010000       3.76080000      -2.08960000
C        1.31460000       3.81690000      -1.24430000
C        1.93370000       2.77140000      -0.43210000
C        1.43010000       1.66580000       0.15450000
H       -2.13600000       1.36040000      -1.38080000
H       -2.31850000       3.11370000      -1.10840000
H        0.01040000       1.67370000      -2.49570000
H       -1.16110000       2.71500000      -3.30590000
H        0.02510000       4.67600000      -2.62360000
H        1.85420000       4.76170000      -1.20590000
H        3.00460000       2.92110000      -0.29360000
H        2.10600000       0.96620000       0.63570000
