19
Properties=species:S:1:pos:R:3 gdb_103390=T pbc="F F F"
C       -0.22710000       1.48100000       0.07460000
C        0.13040000      -0.01090000       0.07490000
C        0.77500000      -0.50030000      -1.22690000
C        2.13660000       0.13890000      -1.52250000
C        0.78220000      -2.03540000      -1.43570000
O       -0.56860000      -2.47240000      -1.40630000
C       -0.05020000      -1.97760000      -2.66350000
C       -0.10280000      -0.45910000      -2.53120000
O       -0.50220000       0.43030000      -3.22340000
H        0.66340000       2.11480000       0.02040000
H       -0.86680000       1.73290000      -0.77610000
H       -0.76150000       1.74430000       0.99220000
H        0.81570000      -0.22770000       0.90600000
H       -0.77270000      -0.60360000       0.24960000
H        2.81630000      -0.00100000      -0.67480000
H        2.60530000      -0.30350000      -2.40830000
H        2.03130000       1.21070000      -1.70590000
H        1.55850000      -2.75120000      -1.19060000
H       -0.11620000      -2.63160000      -3.52490000
