17
Properties=species:S:1:pos:R:3 gdb_74613=T pbc="F F F"
C       -0.03040000       1.51710000      -0.06830000
C       -0.09070000       0.02610000       0.10150000
O        0.36350000      -0.70130000      -1.11550000
C       -0.72210000      -1.59840000      -0.95210000
C       -0.81430000      -2.09090000       0.51720000
N        0.34000000      -1.90810000       1.35620000
C        0.71760000      -0.69170000       1.18160000
N        1.78070000      -0.10370000       1.81990000
C       -1.42140000      -0.77670000       0.08770000
H        0.99390000       1.84380000      -0.28050000
H       -0.65730000       1.83190000      -0.90620000
H       -0.37450000       2.02080000       0.84040000
H       -1.04770000      -2.15900000      -1.82040000
H       -1.44520000      -2.94940000       0.71270000
H        2.42610000      -0.75630000       2.24270000
H        2.23100000       0.65970000       1.34000000
H       -2.43420000      -0.41650000       0.21430000
