15
Properties=species:S:1:pos:R:3 gdb_15512=T pbc="F F F"
O       -0.36850000       0.02340000       0.15000000
C       -0.08020000       1.20460000       0.09800000
C        1.21090000       1.79220000       0.02470000
N        1.25950000       3.27860000      -0.05430000
H        1.12530000       3.63230000      -1.00840000
H        0.52750000       3.71060000       0.51280000
C        2.64580000       3.67540000       0.43070000
C        3.51460000       2.50420000       0.00100000
C        2.54340000       1.27950000       0.02580000
O        2.93970000       0.13030000       0.03910000
H       -0.90140000       1.98370000       0.12220000
H        2.89970000       4.65240000       0.01350000
H        2.57550000       3.74760000       1.51740000
H        3.91240000       2.63820000      -1.01160000
H        4.35660000       2.33740000       0.67350000
