21
Properties=species:S:1:pos:R:3 gdb_74709=T pbc="F F F"
C        0.00630000       1.49590000       0.13150000
C       -0.05090000      -0.00060000      -0.03620000
C       -1.18800000      -0.68640000       0.11460000
C       -1.33560000      -2.17940000      -0.01190000
C       -0.10760000      -2.95910000       0.55180000
C        0.51280000      -2.90030000      -0.86860000
C       -0.92360000      -2.70810000      -1.42610000
O        1.35520000      -1.79340000      -1.14460000
C        1.30060000      -0.63830000      -0.32620000
H        0.74940000       1.78440000       0.88710000
H        0.30610000       1.99010000      -0.80180000
H       -0.95990000       1.90290000       0.43990000
H       -2.09650000      -0.12840000       0.33140000
H       -2.31550000      -2.49390000       0.35360000
H        0.44260000      -2.52310000       1.38780000
H       -0.37000000      -3.99040000       0.80320000
H        1.06820000      -3.77840000      -1.20950000
H       -1.39830000      -3.66590000      -1.66060000
H       -1.02480000      -2.02330000      -2.26980000
H        1.92430000       0.09070000      -0.85550000
H        1.80870000      -0.82500000       0.63620000
