15
Properties=species:S:1:pos:R:3 gdb_26076=T pbc="F F F"
O        0.52120000       1.57690000      -0.13870000
C        0.15720000       0.20690000       0.00350000
C        0.45530000      -0.56890000      -1.20860000
C        0.72110000      -1.18980000      -2.20270000
C        0.78440000      -0.40990000       1.23210000
C        1.29910000       0.27750000       2.28730000
O        1.76080000      -0.57920000       3.23610000
C        1.53160000      -1.83750000       2.77660000
C        0.93840000      -1.80060000       1.55660000
H        1.46590000       1.59890000      -0.33240000
H       -0.93340000       0.23370000       0.13010000
H        0.94660000      -1.73510000      -3.08590000
H        1.39790000       1.32750000       2.50130000
H        1.85080000      -2.63760000       3.42370000
H        0.65380000      -2.64300000       0.94660000
