20
Properties=species:S:1:pos:R:3 gdb_68836=T pbc="F F F"
C       -0.08310000       1.52460000       0.06060000
C        0.17110000       0.05430000      -0.00330000
C        0.66890000      -0.77470000      -1.20830000
C        1.25340000      -1.77610000      -0.18410000
C        1.43470000      -3.23690000      -0.26910000
N        2.60400000      -2.32690000      -0.19780000
C        0.74150000      -0.91330000       0.96310000
C        1.28700000      -0.79970000       2.34620000
O       -0.68450000      -0.82140000       0.75240000
H        0.76910000       2.08520000      -0.33700000
H       -0.96700000       1.79180000      -0.53010000
H       -0.26060000       1.83930000       1.09250000
H       -0.11280000      -1.13830000      -1.88040000
H        1.45040000      -0.26830000      -1.78470000
H        1.29010000      -3.86410000       0.60640000
H        1.21150000      -3.72260000      -1.21580000
H        3.01900000      -2.22160000      -1.12090000
H        2.37740000      -0.72280000       2.31290000
H        0.87720000       0.07540000       2.85750000
H        1.03100000      -1.68660000       2.93690000
