18
Properties=species:S:1:pos:R:3 gdb_60914=T pbc="F F F"
C       -0.05310000       1.45140000      -0.00510000
N       -0.00380000      -0.00580000      -0.00410000
C        0.00440000      -0.67000000       1.20390000
O       -0.02680000      -0.13140000       2.28720000
C        0.03360000      -0.67660000      -1.22170000
C        0.03050000      -0.14580000      -2.44790000
C        0.07970000      -1.24210000      -3.46880000
O        0.11160000      -2.45750000      -2.71940000
C        0.08560000      -2.18670000      -1.32990000
H        0.83010000       1.86020000      -0.50640000
H       -0.94890000       1.79980000      -0.52890000
H       -0.07740000       1.78220000       1.03160000
H        0.04290000      -1.76480000       1.08430000
H       -0.00160000       0.90230000      -2.70620000
H       -0.79840000      -1.24440000      -4.13400000
H        0.97150000      -1.18490000      -4.11280000
H        0.98130000      -2.60860000      -0.84690000
H       -0.79120000      -2.66810000      -0.86840000
