18
Properties=species:S:1:pos:R:3 gdb_73431=T pbc="F F F"
C        0.12600000       1.46590000      -0.01700000
C        0.14250000      -0.04560000      -0.02550000
C       -0.08300000      -0.64570000      -1.39740000
O        0.12440000      -2.04530000      -1.46250000
C        0.05560000      -2.67270000      -0.22190000
C        0.88400000      -2.26290000       0.95800000
C       -0.63960000      -2.12590000       0.98900000
N       -0.57130000      -0.61970000       1.14680000
C        0.92920000      -0.72950000       1.03210000
H        0.97670000       1.86910000      -0.57690000
H       -0.79600000       1.84340000      -0.47270000
H        0.17040000       1.84120000       1.00830000
H       -1.11330000      -0.40520000      -1.71100000
H        0.59800000      -0.18290000      -2.12190000
H       -0.04870000      -3.74510000      -0.35430000
H        1.54800000      -2.91920000       1.50480000
H       -1.40120000      -2.65230000       1.55200000
H        1.57450000      -0.18830000       1.71760000
