18
Properties=species:S:1:pos:R:3 gdb_32939=T pbc="F F F"
C       -0.13680000       1.50150000       0.01210000
C       -0.01670000      -0.01000000      -0.01110000
O       -1.34660000      -0.55050000       0.03690000
C       -1.41370000      -1.88840000       0.02960000
N       -0.43190000      -2.74710000      -0.01370000
C       -1.05430000      -3.99110000      -0.01710000
C       -2.41180000      -3.85900000       0.03460000
N       -3.50230000      -4.74690000       0.12210000
N       -2.63790000      -2.48380000       0.06200000
H        0.85900000       1.95300000      -0.02330000
H       -0.70960000       1.86100000      -0.84760000
H       -0.63660000       1.83930000       0.92450000
H        0.48160000      -0.36790000      -0.91880000
H        0.55400000      -0.38920000       0.84370000
H       -0.47850000      -4.90350000      -0.05460000
H       -3.21770000      -5.62200000       0.54490000
H       -3.90250000      -4.96180000      -0.78730000
H       -3.52860000      -2.03120000       0.17700000
