21
Properties=species:S:1:pos:R:3 gdb_114263=T pbc="F F F"
C        0.19670000       1.72900000      -0.01670000
C        0.25180000       0.20610000      -0.18160000
C        0.69970000      -0.50870000       1.08970000
C       -0.32580000      -0.57680000       2.31600000
C       -0.45680000      -2.06470000       1.98360000
C       -0.47140000      -3.60950000       2.09980000
C       -0.16550000      -3.15750000       0.60750000
O       -1.26290000      -2.20200000       0.72130000
C        0.82470000      -2.08910000       1.14800000
H        1.17520000       2.13820000       0.26030000
H       -0.11580000       2.21490000      -0.94640000
H       -0.51560000       2.02150000       0.76280000
H       -0.72260000      -0.17890000      -0.48910000
H        0.95760000      -0.04750000      -0.98370000
H        1.65400000      -0.08080000       1.41450000
H        0.16580000      -0.38140000       3.27210000
H       -1.24900000       0.00420000       2.24810000
H        0.33100000      -4.07190000       2.68040000
H       -1.43790000      -4.09880000       2.23370000
H       -0.13820000      -3.79340000      -0.28250000
H        1.74650000      -2.45270000       1.60650000
