19
Properties=species:S:1:pos:R:3 gdb_91900=T pbc="F F F"
C       -0.12270000       1.51310000       0.08750000
C       -0.03530000       0.01530000       0.00430000
C       -0.13920000      -0.67600000      -1.13370000
C       -0.04260000      -2.18270000      -1.22630000
O        0.39530000      -2.59950000      -2.51530000
C        0.84650000      -2.77530000      -0.11740000
C        0.60520000      -2.12680000       1.23920000
O        1.52250000      -1.09300000       1.62190000
C        0.16870000      -0.72580000       1.28500000
H        0.79610000       1.93240000       0.51580000
H       -0.28010000       1.96210000      -0.89650000
H       -0.94530000       1.82780000       0.74240000
H       -0.31620000      -0.16650000      -2.07880000
H       -1.05250000      -2.60810000      -1.14440000
H        1.27290000      -2.22580000      -2.65590000
H        0.69620000      -3.85740000      -0.06690000
H        1.89540000      -2.60370000      -0.38660000
H        0.32470000      -2.78680000       2.05930000
H       -0.41000000      -0.37380000       2.14010000
