19
Properties=species:S:1:pos:R:3 gdb_80945=T pbc="F F F"
C       -0.10530000       1.62710000       0.04110000
C        0.03250000       0.11300000       0.03790000
C        1.17910000      -0.61900000      -0.73830000
C        2.17600000      -0.16710000       0.36550000
C        0.88220000      -0.63010000       1.10530000
O        0.59440000      -0.59570000       2.45120000
C        0.89260000      -1.88710000       0.13870000
C       -0.30670000      -2.66940000      -0.06340000
C       -1.28300000      -3.35520000      -0.22040000
H        0.84110000       2.15830000       0.16730000
H       -0.55320000       1.96780000      -0.89870000
H       -0.76980000       1.93990000       0.85330000
H       -0.94670000      -0.34790000      -0.11760000
H        1.34980000      -0.62550000      -1.81220000
H        3.06630000      -0.78930000       0.49800000
H        2.42640000       0.89140000       0.41320000
H        1.26870000      -1.09170000       2.92830000
H        1.76480000      -2.53680000       0.26740000
H       -2.14970000      -3.95270000      -0.35900000
