19
Properties=species:S:1:pos:R:3 gdb_40766=T pbc="F F F"
C       -0.31790000       1.29950000      -0.19210000
C        1.09480000       1.10260000       0.30030000
C        0.22820000      -0.09230000      -0.00810000
C       -0.26230000      -0.96870000       1.11320000
O       -0.56630000      -0.22930000       2.32740000
C       -1.89620000      -0.78970000       2.42600000
C       -1.70280000      -1.49300000       1.08990000
C       -2.61870000      -1.76380000      -0.01250000
O       -2.07950000      -2.81940000       0.80530000
H       -1.04220000       1.65110000       0.53380000
H       -0.47150000       1.66190000      -1.20240000
H        1.91740000       1.32540000      -0.36980000
H        1.28440000       1.31780000       1.34550000
H        0.47410000      -0.65020000      -0.90820000
H        0.45970000      -1.77270000       1.31870000
H       -1.99830000      -1.47160000       3.27950000
H       -2.66880000      -0.01390000       2.47850000
H       -3.68500000      -1.57870000       0.11030000
H       -2.25570000      -1.73740000      -1.03860000
