19
Properties=species:S:1:pos:R:3 gdb_62719=T pbc="F F F"
C       -0.11920000       1.59540000       0.00030000
C       -0.02220000       0.07270000       0.00510000
C       -1.37970000      -0.54470000      -0.34320000
C        1.17560000      -0.59380000      -0.78600000
C        2.39620000      -0.03400000      -0.08480000
C        2.06830000      -0.05070000       1.22280000
C        0.66470000      -0.61990000       1.25150000
C        0.97260000      -1.79260000       0.23070000
O        1.02920000      -2.97630000       0.22970000
H        0.83170000       2.07060000       0.24480000
H       -0.43860000       1.95220000      -0.98490000
H       -0.86770000       1.93030000       0.72670000
H       -1.70970000      -0.21050000      -1.33270000
H       -1.35720000      -1.63880000      -0.35150000
H       -2.13950000      -0.23240000       0.38140000
H        1.17290000      -0.71500000      -1.86750000
H        3.34240000       0.20200000      -0.54970000
H        2.68190000       0.16820000       2.08460000
H        0.15290000      -0.76720000       2.20050000
