22
Properties=species:S:1:pos:R:3 gdb_7816=T pbc="F F F"
C       -0.08520000       1.55940000      -0.00370000
C       -0.00240000       0.02510000      -0.01350000
C        0.68550000      -0.49710000      -1.28470000
C        1.01150000      -1.98840000      -1.16620000
C        1.96830000      -2.24470000       0.00520000
C        1.58190000      -1.48500000       1.25580000
C        2.26560000      -1.91490000       2.52560000
C        0.69000000      -0.49090000       1.22660000
H        0.91620000       2.00440000       0.00220000
H       -0.61440000       1.92970000      -0.88830000
H       -0.61670000       1.92300000       0.88230000
H       -1.03810000      -0.35330000      -0.00790000
H        0.05170000      -0.30500000      -2.15820000
H        1.61640000       0.06570000      -1.44190000
H        0.08140000      -2.54880000      -1.00390000
H        1.44590000      -2.36610000      -2.09830000
H        2.01210000      -3.31870000       0.23140000
H        2.99590000      -1.96900000      -0.27840000
H        3.35750000      -1.84310000       2.43010000
H        1.96000000      -1.30360000       3.37910000
H        2.04600000      -2.96480000       2.76010000
H        0.43420000       0.01250000       2.15890000
