20
Properties=species:S:1:pos:R:3 gdb_96532=T pbc="F F F"
O       -0.39060000       1.42940000      -0.09540000
C       -0.16370000       0.04370000      -0.10250000
C       -1.50520000      -0.68610000      -0.28520000
C       -1.53350000      -2.10330000       0.30680000
C       -0.26870000      -2.93400000       0.01790000
C        0.34140000      -2.68990000      -1.36000000
O        1.23970000      -1.56740000      -1.43900000
C        0.88110000      -0.29000000      -1.17050000
N        1.48060000       0.68420000      -1.72000000
H        0.30730000       1.80430000      -0.66060000
H        0.27290000      -0.27020000       0.86400000
H       -2.26030000      -0.06580000       0.20490000
H       -1.76870000      -0.69770000      -1.34950000
H       -1.67390000      -2.04400000       1.39190000
H       -2.41220000      -2.62820000      -0.08490000
H        0.51000000      -2.73900000       0.76390000
H       -0.50540000      -4.00090000       0.10020000
H        0.97810000      -3.53020000      -1.64580000
H       -0.43440000      -2.58450000      -2.12910000
H        2.16830000       0.36470000      -2.40130000
