16
Properties=species:S:1:pos:R:3 gdb_3059=T pbc="F F F"
C        0.24210000       1.23870000       0.18440000
N       -0.28850000      -0.00540000      -0.33160000
C        0.49070000      -0.73340000      -0.99630000
O        0.06200000      -1.91170000      -1.50550000
C        1.00510000      -2.61870000      -2.27390000
C        2.03190000      -3.46530000      -1.57040000
C        0.85250000      -4.10290000      -2.27620000
H        1.29890000       1.41880000      -0.07390000
H       -0.35200000       2.07760000      -0.19590000
H        0.14860000       1.25400000       1.27640000
H        1.54360000      -0.50140000      -1.21770000
H        1.28050000      -2.11820000      -3.19930000
H        3.01900000      -3.55160000      -2.01080000
H        2.01320000      -3.45850000      -0.48660000
H        0.06130000      -4.50360000      -1.65360000
H        1.01920000      -4.63530000      -3.20520000
