25
Properties=species:S:1:pos:R:3 gdb_122192=T pbc="F F F"
C        0.04270000       1.59620000      -0.00490000
C       -0.02390000       0.07290000       0.12520000
C       -1.45210000      -0.45700000       0.08020000
O       -1.40780000      -1.86260000       0.23750000
C       -2.60950000      -2.56160000      -0.02580000
C       -3.71970000      -2.20310000       0.96160000
C       -3.08670000      -2.58970000      -1.51590000
C       -3.22400000      -4.13260000      -1.40210000
C       -2.34850000      -4.08630000      -0.12120000
H        1.07720000       1.94960000       0.03280000
H       -0.38920000       1.93640000      -0.95290000
H       -0.50620000       2.09100000       0.80410000
H        0.55010000      -0.40470000      -0.67720000
H        0.43400000      -0.24860000       1.06790000
H       -2.04970000       0.01360000       0.87720000
H       -1.92520000      -0.18940000      -0.87910000
H       -4.04710000      -1.16490000       0.84760000
H       -4.59460000      -2.84170000       0.80470000
H       -3.37030000      -2.34630000       1.98930000
H       -3.97970000      -2.01590000      -1.77770000
H       -2.26870000      -2.30400000      -2.18260000
H       -4.25140000      -4.44440000      -1.19670000
H       -2.84820000      -4.72580000      -2.23790000
H       -1.29280000      -4.26470000      -0.33760000
H       -2.64900000      -4.69910000       0.73250000
