18
Properties=species:S:1:pos:R:3 gdb_30120=T pbc="F F F"
O        0.15120000       1.43890000       0.06390000
C        0.07300000       0.05160000       0.09000000
C       -0.32960000      -0.65820000       1.35110000
C       -1.28930000      -0.63150000       0.17210000
C       -2.50800000       0.19680000       0.18290000
C       -2.87410000       1.31150000       0.92050000
C       -4.14830000       1.74470000       0.45390000
C       -4.52660000       0.89450000      -0.55510000
N       -3.52610000      -0.03350000      -0.71350000
H       -0.74370000       1.78570000      -0.06790000
H        0.82350000      -0.41620000      -0.54250000
H        0.13780000      -1.60480000       1.60060000
H       -0.57790000      -0.03350000       2.20230000
H       -1.38690000      -1.55940000      -0.38510000
H       -2.30710000       1.74230000       1.73150000
H       -4.71970000       2.58120000       0.82520000
H       -5.41450000       0.86280000      -1.16560000
H       -3.52740000      -0.77560000      -1.39170000
