15
Properties=species:S:1:pos:R:3 gdb_24526=T pbc="F F F"
N       -0.01930000       1.37060000       0.01010000
C        1.14090000       2.07810000       0.00250000
C        2.35570000       1.43290000      -0.01320000
C        2.42000000       0.02330000      -0.02150000
C        1.24840000      -0.70140000      -0.01390000
N        1.03970000      -2.04730000      -0.01920000
C       -0.29280000      -2.17690000      -0.00670000
C       -1.02110000      -0.95630000       0.00730000
C       -0.02980000       0.00780000       0.00270000
H       -0.89540000       1.87270000       0.02160000
H        1.03840000       3.15480000       0.00940000
H        3.25990000       2.02780000      -0.01890000
H        3.37740000      -0.48680000      -0.03390000
H       -0.74090000      -3.16520000      -0.00770000
H       -2.09270000      -0.82850000       0.01860000
