19
Properties=species:S:1:pos:R:3 gdb_55266=T pbc="F F F"
C       -0.18650000       1.50490000       0.10520000
C       -0.05480000       0.02300000      -0.00340000
C       -0.08610000      -0.72170000      -1.11210000
N        0.07390000      -2.09130000      -0.85470000
C        0.06820000      -2.31250000       0.60170000
C        0.17640000      -0.88330000       1.19330000
C        0.02730000      -3.15140000      -1.72480000
N        0.03560000      -2.81150000      -3.07830000
O       -0.04970000      -4.30430000      -1.33580000
H        0.70730000       1.95620000       0.55710000
H       -0.33660000       1.96880000      -0.87400000
H       -1.03300000       1.78840000       0.74460000
H       -0.24350000      -0.38780000      -2.12790000
H       -0.86220000      -2.81130000       0.89180000
H        0.89220000      -2.96960000       0.88530000
H        1.16220000      -0.69870000       1.64180000
H       -0.55950000      -0.71720000       1.98810000
H        0.61420000      -2.03060000      -3.35170000
H        0.18160000      -3.63000000      -3.65130000
