20
Properties=species:S:1:pos:R:3 gdb_33126=T pbc="F F F"
C       -0.05470000       1.59900000      -0.01470000
C       -0.04680000       0.06880000      -0.03150000
C        0.75580000      -0.51320000      -1.21220000
C        0.76330000      -2.01150000      -1.26390000
C        1.75040000      -2.86020000      -0.86800000
O        1.40530000      -4.15380000      -1.06630000
C        0.14490000      -4.14550000      -1.60040000
C       -0.29620000      -2.86500000      -1.74970000
N       -1.48090000      -2.40810000      -2.35050000
H        0.96320000       1.99780000       0.05990000
H       -0.49970000       2.00430000      -0.93040000
H       -0.62670000       1.98650000       0.83400000
H        0.37460000      -0.31580000       0.90500000
H       -1.07960000      -0.30340000      -0.06600000
H        0.34540000      -0.11970000      -2.15210000
H        1.78720000      -0.14540000      -1.15170000
H        2.72930000      -2.69180000      -0.44790000
H       -0.27960000      -5.10840000      -1.82970000
H       -2.16580000      -3.14330000      -2.47120000
H       -1.90730000      -1.64400000      -1.84130000
