18
Properties=species:S:1:pos:R:3 gdb_41209=T pbc="F F F"
C        0.04610000       1.59360000       0.13890000
O        1.52050000       1.48030000       0.01300000
C        1.21000000       0.30210000      -0.85350000
C        1.22490000      -1.25570000      -1.13410000
C        1.65950000      -2.12410000       0.02690000
O        1.40060000      -1.48260000       1.25790000
C        0.23270000      -0.67510000       1.25120000
C       -0.00890000       0.04380000      -0.08990000
N       -0.32130000      -1.12250000      -1.06960000
H       -0.24160000       1.99050000       1.11580000
H       -0.37180000       2.19740000      -0.67550000
H        0.99120000       0.74530000      -1.83570000
H        1.61240000      -1.60760000      -2.09320000
H        1.13970000      -3.09250000      -0.04390000
H        2.73920000      -2.30570000      -0.01070000
H       -0.66410000      -1.28020000       1.45690000
H        0.37370000       0.03840000       2.06540000
H       -0.63230000      -0.74630000      -1.96650000
