16
Properties=species:S:1:pos:R:3 gdb_67493=T pbc="F F F"
N       -0.08050000       1.42540000       0.10790000
C       -0.00700000       0.01650000      -0.05100000
C        0.59220000      -0.74480000      -1.28630000
N        0.82650000      -2.15420000      -0.91160000
C       -0.53530000      -1.69790000      -1.26190000
C       -1.15540000      -0.98430000      -0.03100000
C       -0.21550000      -0.87630000       1.15880000
C        0.65590000      -1.87580000       1.72500000
N        1.31190000      -2.61370000       2.32860000
H        0.82520000       1.81770000       0.35010000
H       -0.39280000       1.87780000      -0.74610000
H        1.10390000      -0.27160000      -2.11510000
H        1.22140000      -2.64260000      -1.71460000
H       -1.09830000      -2.14590000      -2.06930000
H       -2.21490000      -0.79960000       0.09050000
H       -0.68710000      -0.28600000       1.94140000
