17
Properties=species:S:1:pos:R:3 gdb_37896=T pbc="F F F"
C        0.01880000       1.55090000       0.03600000
C        1.55440000       1.96820000       0.03070000
C        2.12640000       0.57650000      -0.00750000
O        3.33470000      -0.16130000      -0.38290000
C        2.28970000      -1.20920000      -0.12720000
C        1.83140000      -0.43180000       1.13310000
O        0.43830000      -0.47070000       1.33260000
C       -0.01270000      -0.01460000       0.03290000
C        1.20550000      -0.35410000      -0.83160000
H       -0.51130000       1.93340000       0.91060000
H       -0.48090000       1.93630000      -0.85830000
H        1.80830000       2.55670000      -0.85470000
H        1.83170000       2.54100000       0.91900000
H        2.60030000      -2.24180000      -0.28070000
H        2.40640000      -0.45290000       2.05600000
H       -0.99000000      -0.44600000      -0.18430000
H        1.18180000      -0.25330000      -1.91460000
