20
Properties=species:S:1:pos:R:3 gdb_48363=T pbc="F F F"
O        0.19720000      -0.23870000       0.29960000
C        0.40550000       0.69740000      -0.43450000
C        1.18290000       1.91820000      -0.06010000
C        1.26560000       2.21540000       1.44000000
C        2.44880000       1.63910000       0.73790000
N        1.15090000       2.94360000      -1.05610000
C        2.19140000       3.97580000      -1.21310000
C        1.09280000       4.94690000      -1.71250000
C        0.08240000       3.96560000      -1.07210000
H        0.03330000       0.72000000      -1.48230000
H        1.29920000       3.26120000       1.72560000
H        0.69000000       1.56440000       2.08780000
H        2.68210000       0.59340000       0.90290000
H        3.30140000       2.28060000       0.54520000
H        2.63320000       4.32100000      -0.26450000
H        3.00280000       3.71040000      -1.89890000
H        1.11600000       5.96410000      -1.32170000
H        1.02060000       4.97390000      -2.80080000
H       -0.80900000       3.69240000      -1.64620000
H       -0.22980000       4.28190000      -0.06400000
