23
Properties=species:S:1:pos:R:3 gdb_80390=T pbc="F F F"
C        0.22540000       1.63950000      -0.41670000
C        0.26910000       0.14230000      -0.19050000
C        1.51590000      -0.67570000      -0.30430000
O        2.63740000       0.03960000       0.22130000
C        2.08970000      -0.06340000       1.58270000
C        2.91340000      -1.10520000       2.33860000
C        2.08310000       1.26170000       2.33380000
C        0.77600000      -0.64880000       1.01960000
C       -0.08520000      -1.66380000       1.71890000
H        1.21950000       2.07820000      -0.31460000
H       -0.12570000       1.84840000      -1.43320000
H       -0.45600000       2.14500000       0.27620000
H       -0.59060000      -0.38360000      -0.60630000
H        1.71500000      -1.45990000      -1.02770000
H        3.93920000      -0.74310000       2.45620000
H        2.50060000      -1.29270000       3.33560000
H        2.94520000      -2.05030000       1.79050000
H        1.48520000       2.02340000       1.83580000
H        1.68020000       1.11530000       3.34180000
H        3.10670000       1.63830000       2.43580000
H       -0.70580000      -1.19440000       2.49230000
H       -0.76440000      -2.15230000       1.01280000
H        0.50900000      -2.44690000       2.20090000
