18
Properties=species:S:1:pos:R:3 gdb_66946=T pbc="F F F"
C        0.01360000       1.51290000       0.08510000
C        0.02480000       0.01990000      -0.02350000
C       -0.93000000      -0.92310000       0.74200000
O       -1.06200000      -2.14180000       0.00950000
C        0.37370000      -2.04220000      -0.23240000
C        0.53500000      -1.03710000       0.97340000
C        0.48240000      -0.84500000      -1.18130000
C        0.33590000      -0.72810000      -2.63930000
N        1.67300000      -0.61760000      -1.98650000
H        0.99550000       1.94230000      -0.14930000
H       -0.72020000       1.95690000      -0.59750000
H       -0.24470000       1.83290000       1.10000000
H       -1.74960000      -0.58870000       1.36570000
H        0.87230000      -2.99180000      -0.41020000
H        1.17710000      -0.98280000       1.84150000
H        0.20280000      -1.61300000      -3.25550000
H       -0.11740000       0.17520000      -3.04050000
H        1.95350000       0.36020000      -1.94070000
