15
Properties=species:S:1:pos:R:3 gdb_43130=T pbc="F F F"
O        0.00270000      -0.00720000       0.02720000
C       -0.02660000       1.19030000       0.01500000
C       -1.22740000       2.13850000       0.03880000
C       -1.16950000       2.84880000       1.40760000
O        0.01920000       3.66110000       1.33270000
C        0.53610000       3.54280000      -0.00710000
C       -0.70910000       3.28850000      -0.86680000
C        1.21020000       2.16220000      -0.04160000
O        2.36680000       1.85780000      -0.08290000
H       -2.17980000       1.67110000      -0.20390000
H       -2.04720000       3.48830000       1.56170000
H       -1.08370000       2.15760000       2.25170000
H        1.17630000       4.39390000      -0.22930000
H       -0.47270000       2.97040000      -1.88660000
H       -1.38420000       4.14700000      -0.89880000
