15
Properties=species:S:1:pos:R:3 gdb_51699=T pbc="F F F"
N       -0.05680000       1.18160000      -0.41710000
C       -0.04150000      -0.04740000      -0.15220000
O       -1.20500000      -0.75250000      -0.20920000
C       -1.11640000      -2.12770000       0.07110000
C       -2.52730000      -2.71840000       0.04650000
O       -2.61670000      -3.29730000      -1.25510000
C       -1.37190000      -3.39070000      -1.79900000
N       -1.04420000      -3.91500000      -2.88840000
O       -0.45180000      -2.82530000      -0.96170000
H        0.87840000       1.57270000      -0.32380000
H        0.82520000      -0.65480000       0.13420000
H       -0.56100000      -2.29870000       0.99790000
H       -2.65850000      -3.49440000       0.80710000
H       -3.28890000      -1.94590000       0.15550000
H       -1.85800000      -4.31330000      -3.35040000
