17
Properties=species:S:1:pos:R:3 gdb_15638=T pbc="F F F"
C        0.05930000       1.58140000       0.08130000
C        0.01180000       0.05330000       0.02810000
C       -1.41880000      -0.51270000      -0.05810000
C       -2.15240000      -0.30650000      -1.36220000
C       -2.51550000      -1.49850000      -1.84550000
N       -2.10710000      -2.53760000      -0.99520000
C       -1.41480000      -2.04820000       0.09770000
O       -0.90430000      -2.70830000       0.97390000
H        1.09100000       1.93690000       0.16220000
H       -0.37510000       2.03140000      -0.81760000
H       -0.49400000       1.96490000       0.94600000
H        0.58930000      -0.30900000      -0.83080000
H        0.47790000      -0.37420000       0.92260000
H       -1.99680000      -0.10660000       0.78530000
H       -2.36110000       0.64910000      -1.81810000
H       -3.05860000      -1.73840000      -2.74860000
H       -2.22110000      -3.52190000      -1.17030000
