15
Properties=species:S:1:pos:R:3 gdb_4976=T pbc="F F F"
C       -0.01150000       1.50640000      -0.02360000
C       -0.00180000       0.00350000       0.00210000
N       -0.06000000      -0.64470000      -1.16250000
C       -0.04010000      -1.97740000      -1.13120000
N        0.02860000      -2.74200000      -0.04280000
C        0.08110000      -2.09550000       1.11980000
C        0.07270000      -0.70230000       1.21940000
N        0.19630000      -0.04960000       2.44270000
H        0.86360000       1.91640000       0.49470000
H       -0.01170000       1.85270000      -1.05740000
H       -0.90170000       1.91310000       0.47590000
H       -0.08530000      -2.48840000      -2.08900000
H        0.13550000      -2.70560000       2.02160000
H       -0.02410000      -0.61800000       3.24840000
H       -0.24530000       0.85650000       2.49760000
