21
Properties=species:S:1:pos:R:3 gdb_83770=T pbc="F F F"
C       -0.12600000       1.66020000       0.02700000
C        0.07760000       0.14930000       0.04390000
C        1.03860000      -0.58720000      -0.94600000
C        2.37050000       0.16290000      -1.11020000
C        2.94560000       0.51740000       0.28810000
C        2.35600000      -0.48210000       1.27410000
O        2.54330000      -1.80980000       0.68360000
C        1.21200000      -1.70400000       0.16690000
C        0.79050000      -0.62290000       1.17700000
H        0.80730000       2.22550000       0.06740000
H       -0.65600000       1.96750000      -0.88170000
H       -0.73730000       1.97250000       0.88140000
H       -0.91130000      -0.31970000      -0.04680000
H        0.62220000      -0.89370000      -1.90830000
H        3.07530000      -0.48260000      -1.64110000
H        2.23310000       1.05990000      -1.72260000
H        4.03680000       0.42910000       0.29140000
H        2.70810000       1.54130000       0.59180000
H        2.78320000      -0.42800000       2.27880000
H        0.72100000      -2.66570000       0.00700000
H        0.28450000      -0.83250000       2.12060000
