15
Properties=species:S:1:pos:R:3 gdb_131157=T pbc="F F F"
O        0.91590000       1.14620000      -0.02840000
C        0.36100000      -0.09220000      -0.03000000
C        0.07250000      -0.93490000      -1.09120000
C        0.23910000      -0.78350000      -2.57710000
C        1.27190000       0.18840000      -2.93530000
C        2.11400000       0.99850000      -3.22020000
N       -0.48870000      -2.04390000      -0.52230000
N       -0.58170000      -1.97360000       0.81380000
C       -0.06520000      -0.78700000       1.12340000
H        1.26330000       1.32880000      -0.91190000
H        0.50040000      -1.75320000      -3.02330000
H       -0.70740000      -0.48180000      -3.05010000
H        2.86640000       1.69740000      -3.49290000
H       -0.80760000      -2.87540000      -0.98970000
H       -0.00920000      -0.46030000       2.15040000
