16
Properties=species:S:1:pos:R:3 gdb_13964=T pbc="F F F"
O       -0.32270000       0.12390000       0.24740000
C       -0.01260000       1.27880000       0.11490000
C        1.40510000       1.76220000      -0.14870000
C        1.46530000       2.72040000      -1.30120000
C        1.35080000       2.42770000      -2.81030000
C        2.21950000       3.70790000      -3.07540000
C        2.27360000       3.92720000      -1.55820000
O        0.91820000       4.03570000      -1.10070000
H       -0.76490000       2.09490000       0.18620000
H        1.74560000       2.28630000       0.75450000
H        2.04700000       0.89210000      -0.31390000
H        1.85880000       1.50790000      -3.10980000
H        0.33260000       2.42770000      -3.20560000
H        3.19190000       3.47100000      -3.51300000
H        1.74980000       4.51600000      -3.64010000
H        3.03480000       4.41260000      -0.95710000
