20
Properties=species:S:1:pos:R:3 gdb_97206=T pbc="F F F"
C        0.14280000       1.37910000      -0.18300000
N        0.10120000      -0.07110000      -0.08840000
C        0.61560000      -0.66130000       0.89770000
O        1.24920000      -0.08660000       1.95360000
C        1.84920000      -1.11070000       2.77900000
C        1.85380000      -2.38600000       1.92700000
C        0.62930000      -2.18130000       1.01780000
C       -0.67470000      -2.67950000       1.66290000
O        0.80190000      -2.77350000      -0.25040000
H        0.85790000       1.84400000       0.50500000
H        0.39730000       1.66340000      -1.20900000
H       -0.85230000       1.79000000       0.02560000
H        2.84570000      -0.76460000       3.06160000
H        1.24680000      -1.21810000       3.68820000
H        2.74620000      -2.43290000       1.29740000
H        1.80240000      -3.29350000       2.53190000
H       -0.82070000      -2.27180000       2.66930000
H       -1.52700000      -2.38340000       1.04590000
H       -0.64970000      -3.77100000       1.72720000
H        0.42890000      -2.13520000      -0.87790000
