16
Properties=species:S:1:pos:R:3 gdb_20939=T pbc="F F F"
C        0.01360000       1.51110000       0.01700000
C       -0.11230000      -0.00090000      -0.13460000
N        0.86890000      -0.50140000      -1.08730000
C        0.91220000      -1.82820000      -1.42400000
N        1.46900000      -2.32590000      -2.51810000
C        1.29680000      -3.66880000      -2.35210000
N        0.67590000      -4.04360000      -1.25310000
N        0.42580000      -2.83200000      -0.65720000
H        1.01940000       1.78600000       0.34690000
H       -0.18620000       2.01740000      -0.93380000
H       -0.70720000       1.88250000       0.74970000
H        0.07360000      -0.47700000       0.83740000
H       -1.14030000      -0.26640000      -0.43070000
H        1.05100000       0.09330000      -1.88310000
H        1.64290000      -4.39190000      -3.07610000
H       -0.03990000      -2.79950000       0.23240000
