18
Properties=species:S:1:pos:R:3 gdb_125575=T pbc="F F F"
C        0.01530000       1.53660000      -0.06240000
C       -0.02060000       0.04220000      -0.02750000
C       -1.15690000      -0.69310000      -0.05890000
C       -1.12450000      -2.13240000      -0.02250000
C       -2.39470000      -2.93450000      -0.05810000
N       -0.00130000      -2.78480000       0.04200000
N        1.12740000      -2.04560000       0.07300000
C        1.26310000      -0.65830000       0.04510000
N        2.37830000      -0.01730000       0.07780000
H        0.60260000       1.88190000      -0.91960000
H       -0.99080000       1.95900000      -0.11520000
H        0.52910000       1.92430000       0.82340000
H       -2.12270000      -0.19860000      -0.11270000
H       -2.96680000      -2.72770000      -0.97010000
H       -2.16430000      -4.00030000      -0.02270000
H       -3.04260000      -2.68570000       0.79060000
H        1.96790000      -2.60210000       0.12290000
H        3.17760000      -0.65140000       0.12780000
