19
Properties=species:S:1:pos:R:3 gdb_106559=T pbc="F F F"
C        0.18190000       1.47510000       0.08020000
C        0.00110000      -0.03630000      -0.09960000
C        0.60590000      -0.56520000      -1.36300000
O        2.06040000      -0.28780000      -1.63380000
C        1.61480000      -1.10580000      -2.78960000
C        0.89020000      -2.04500000      -1.79020000
O        1.66400000      -2.82090000      -0.93700000
C        0.35030000      -0.20330000      -2.84240000
O       -0.85360000      -0.66290000      -3.39030000
H        1.24180000       1.74280000       0.06400000
H       -0.31680000       2.03190000      -0.71950000
H       -0.24160000       1.80540000       1.03300000
H        0.44620000      -0.57910000       0.74350000
H       -1.06410000      -0.29910000      -0.11080000
H        2.36040000      -1.32640000      -3.55440000
H        0.05160000      -2.63510000      -2.15700000
H        2.39310000      -2.24530000      -0.66370000
H        0.58300000       0.83890000      -3.08360000
H       -0.85690000      -0.46590000      -4.33200000
