20
Properties=species:S:1:pos:R:3 gdb_41975=T pbc="F F F"
C        0.09040000       1.52280000       0.20950000
C        1.52570000       1.94090000      -0.18670000
N        2.03120000       0.89930000      -1.11020000
C        2.50250000      -0.36650000      -0.52010000
C        2.74320000      -0.64150000       0.95480000
C        1.51990000      -0.42040000       1.86580000
O        0.29500000      -0.74390000       1.23540000
C        0.05360000      -0.01490000       0.03360000
C        1.11620000      -0.25890000      -1.04080000
H       -0.21270000       1.83290000       1.21330000
H       -0.61950000       1.96390000      -0.49740000
H        1.53460000       2.89660000      -0.71910000
H        2.18690000       2.05520000       0.67930000
H        3.24390000      -0.84390000      -1.15860000
H        3.04750000      -1.69280000       1.01750000
H        3.59040000      -0.05250000       1.32810000
H        1.58430000      -1.07320000       2.74070000
H        1.49760000       0.61280000       2.24000000
H       -0.92970000      -0.36000000      -0.29180000
H        0.81840000      -0.71600000      -1.98020000
