12
Properties=species:S:1:pos:R:3 gdb_25419=T pbc="F F F"
O       -0.10430000      -0.02800000      -0.22240000
C       -0.02670000       1.17140000      -0.14940000
C        1.22740000       1.92800000       0.05290000
C        1.19060000       3.28140000       0.11910000
O        2.28330000       4.02630000       0.29950000
C        3.54230000       3.41000000       0.43050000
O        4.50510000       4.09730000       0.59120000
C        3.49400000       1.94050000       0.34730000
N        2.42730000       1.24450000       0.17260000
H       -0.92630000       1.82270000      -0.23170000
H        0.28660000       3.87560000       0.03330000
H        4.45390000       1.43870000       0.44510000
