16
Properties=species:S:1:pos:R:3 gdb_25959=T pbc="F F F"
C       -0.17990000       1.56690000       0.01810000
C        0.04230000       0.08860000       0.28150000
O        0.85140000      -0.30310000       1.08790000
C       -0.82640000      -0.85410000      -0.54870000
C       -0.73610000      -2.29710000      -0.19660000
C        0.00360000      -3.07770000       0.62960000
N       -0.39950000      -4.40440000       0.49620000
C       -1.34050000      -4.36090000      -0.38480000
O       -1.61310000      -3.12340000      -0.86130000
H        0.57550000       2.15050000       0.54470000
H       -0.14490000       1.78740000      -1.05400000
H       -1.17500000       1.86100000       0.37230000
H       -1.86900000      -0.51280000      -0.48380000
H       -0.55320000      -0.69860000      -1.60390000
H        0.78670000      -2.77740000       1.30210000
H       -1.92910000      -5.17240000      -0.78310000
