16
Properties=species:S:1:pos:R:3 gdb_54740=T pbc="F F F"
C        0.05880000       1.42070000       0.58280000
C        0.01110000       0.14680000      -0.23360000
O        0.96830000      -0.27810000      -0.84080000
C       -1.31870000      -0.55990000      -0.25190000
C       -2.00390000      -0.94340000      -1.51350000
C       -1.05840000      -1.34390000      -2.64440000
C       -0.49690000      -2.35930000      -1.63590000
O        0.24280000      -3.28490000      -1.67010000
N       -1.45660000      -2.00700000      -0.56700000
H        1.01690000       1.91920000       0.43550000
H       -0.76220000       2.09130000       0.30550000
H       -0.06970000       1.18220000       1.64530000
H       -1.98510000      -0.27890000       0.56030000
H       -3.07500000      -0.81700000      -1.62000000
H       -1.57350000      -1.84330000      -3.46900000
H       -0.36470000      -0.60080000      -3.03640000
