21
Properties=species:S:1:pos:R:3 gdb_63890=T pbc="F F F"
C       -0.07530000       1.54370000      -0.02520000
C       -0.00390000       0.01500000       0.03360000
C       -1.42200000      -0.56350000      -0.05620000
O        0.77640000      -0.46240000      -1.09070000
C        1.88880000      -1.22500000      -0.54000000
C        1.23430000      -1.92610000       0.65850000
C        0.80510000      -0.55980000       1.26240000
C        2.15050000       0.15070000       1.26650000
C        2.81400000      -0.24840000       0.17560000
H        0.92080000       1.98760000      -0.02810000
H       -0.58640000       1.85290000      -0.94220000
H       -0.63820000       1.94240000       0.82620000
H       -1.87640000      -0.27680000      -1.00940000
H       -1.43160000      -1.65350000       0.00250000
H       -2.04960000      -0.16940000       0.75050000
H        2.30810000      -1.82880000      -1.34330000
H        0.41430000      -2.58760000       0.37420000
H        1.94350000      -2.45790000       1.29420000
H        0.24520000      -0.56490000       2.19760000
H        2.44320000       0.91380000       1.97650000
H        3.75880000       0.11800000      -0.20420000
