13
Properties=species:S:1:pos:R:3 gdb_49355=T pbc="F F F"
O        0.01000000      -0.02770000      -0.35000000
C        0.00300000       1.09740000       0.07320000
C        1.23510000       1.95010000       0.07900000
C        1.13590000       3.45250000      -0.16730000
C       -0.13670000       4.07570000      -0.41500000
N       -1.14860000       4.59010000      -0.63230000
C        1.48850000       2.93380000       1.21740000
C        0.55610000       3.05640000       2.30590000
N       -0.17380000       3.15570000       3.19660000
H       -0.91120000       1.57120000       0.48340000
H        2.10940000       1.45600000      -0.32870000
H        1.95650000       3.89210000      -0.72420000
H        2.52570000       3.05460000       1.51120000
