16
Properties=species:S:1:pos:R:3 gdb_51122=T pbc="F F F"
O        0.08090000      -0.18300000      -0.08320000
C        0.03180000       1.01620000      -0.00700000
C        1.23710000       1.93770000      -0.07620000
C        1.13900000       2.87590000      -1.24190000
O        1.72840000       4.17150000      -1.16810000
C        0.34480000       4.07980000      -1.51480000
C        0.22080000       3.67190000      -3.02730000
N        1.59090000       3.55880000      -3.57800000
C        1.02710000       2.46010000      -2.76230000
H       -0.93930000       1.54840000       0.11550000
H        1.26630000       2.54010000       0.84050000
H        2.14570000       1.32980000      -0.13100000
H       -0.36930000       4.63420000      -0.91750000
H       -0.65020000       3.80900000      -3.65340000
H        1.48840000       3.27610000      -4.55350000
H        0.92040000       1.44980000      -3.13460000
