16
Properties=species:S:1:pos:R:3 gdb_38297=T pbc="F F F"
C       -0.02690000       1.64410000       0.10300000
C        1.48610000       1.35540000       0.05210000
O        1.23310000       0.10900000       0.77980000
C       -0.02450000       0.10550000       0.01980000
C        0.52200000      -0.21640000      -1.39780000
N       -0.29180000       0.23150000      -2.53000000
C        0.30740000       1.24410000      -3.00550000
O        1.47710000       1.66960000      -2.45800000
C        1.73330000       0.77240000      -1.35770000
H       -0.32430000       1.98600000       1.09410000
H       -0.50310000       2.23160000      -0.68200000
H        2.24410000       1.99630000       0.49980000
H       -0.80530000      -0.52770000       0.43680000
H        0.77240000      -1.27480000      -1.48690000
H       -0.03020000       1.83920000      -3.84720000
H        2.73170000       0.35170000      -1.47490000
