18
Properties=species:S:1:pos:R:3 gdb_12227=T pbc="F F F"
C        0.53140000       1.37590000      -0.35650000
C        0.04920000       0.00810000       0.08920000
O        0.56020000      -1.04550000      -0.77030000
C        1.31730000      -1.63340000       0.28410000
C        2.81830000      -1.52430000       0.10850000
O        3.37330000      -0.81360000      -0.68770000
C        0.69940000      -0.65620000       1.33980000
C        1.59790000       0.15620000       2.26200000
H        1.61890000       1.39380000      -0.45740000
H        0.09930000       1.61350000      -1.33340000
H        0.21760000       2.15120000       0.35100000
H       -1.04770000      -0.01750000       0.10690000
H        1.06890000      -2.69370000       0.44110000
H        3.39460000      -2.16330000       0.82010000
H       -0.05460000      -1.17900000       1.93320000
H        2.39220000       0.67540000       1.71930000
H        1.01080000       0.90930000       2.79780000
H        2.06880000      -0.48490000       3.01470000
