20
Properties=species:S:1:pos:R:3 gdb_6917=T pbc="F F F"
C        0.07510000       1.52530000      -0.16510000
C       -0.02220000       0.02150000       0.01060000
C       -1.31380000      -0.56860000      -0.52700000
C        1.23330000      -0.80910000      -0.12130000
C        0.57190000      -0.65130000       1.23430000
C        1.25260000       0.09790000       2.36640000
C        2.24210000      -0.78970000       3.09370000
O        2.25820000      -0.97590000       4.28310000
H        1.02870000       1.93020000       0.18280000
H       -0.02180000       1.79040000      -1.22430000
H       -0.72630000       2.04060000       0.37760000
H       -1.42060000      -0.36610000      -1.59930000
H       -1.34830000      -1.65350000      -0.38800000
H       -2.18580000      -0.13840000      -0.02030000
H        1.17620000      -1.77200000      -0.61820000
H        2.16900000      -0.28310000      -0.28680000
H        0.01450000      -1.51960000       1.57890000
H        1.81840000       0.95070000       1.96880000
H        0.53440000       0.48250000       3.09740000
H        2.98170000      -1.28780000       2.42440000
