18
Properties=species:S:1:pos:R:3 gdb_84297=T pbc="F F F"
C        0.12340000       1.42170000       0.01170000
N       -0.12830000       0.00170000       0.01400000
C       -0.05810000      -0.79800000      -1.08720000
C        0.02040000      -2.12990000      -0.80420000
C        0.05370000      -2.27230000       0.63980000
O        0.11280000      -3.25930000       1.35360000
C       -0.01710000      -0.84760000       1.17110000
C        0.76120000      -0.48960000       2.41630000
C       -0.73440000      -0.59210000       2.47430000
H        1.17530000       1.66760000       0.21710000
H       -0.13850000       1.82740000      -0.96890000
H       -0.49910000       1.92400000       0.75950000
H       -0.08140000      -0.32920000      -2.06420000
H        0.03560000      -2.93730000      -1.51840000
H        1.34520000      -1.29980000       2.84000000
H        1.21000000       0.49560000       2.47600000
H       -1.30870000       0.32300000       2.56800000
H       -1.16760000      -1.47310000       2.93570000
