17
Properties=species:S:1:pos:R:3 gdb_19570=T pbc="F F F"
C        0.00050000       1.56770000      -0.00960000
N        1.23270000       0.73330000       0.05490000
C       -0.06430000       0.09880000       0.00840000
C       -0.53910000      -0.98120000       0.98430000
C       -2.07210000      -0.95760000       0.80910000
C       -2.09690000      -0.93740000      -0.75810000
C       -0.56900000      -0.95600000      -0.98060000
O       -0.13570000      -1.97190000      -0.02060000
H       -0.20030000       2.14730000       0.88760000
H       -0.23350000       2.08070000      -0.93990000
H        1.68680000       0.70100000      -0.85510000
H       -0.09850000      -1.13200000       1.96850000
H       -2.53530000      -1.85360000       1.22650000
H       -2.53670000      -0.07710000       1.26090000
H       -2.56990000      -1.82460000      -1.18380000
H       -2.57720000      -0.04770000      -1.17380000
H       -0.17010000      -1.08480000      -1.98770000
