16
Properties=species:S:1:pos:R:3 gdb_13260=T pbc="F F F"
O        0.53050000       0.22890000       0.55980000
C        0.63520000       1.41570000       0.62400000
O        0.55530000       2.20620000      -0.47090000
C        0.76590000       3.60700000      -0.28470000
C        2.23770000       3.95380000      -0.40040000
C        2.63970000       5.40180000      -0.04440000
C        3.47440000       4.74050000       1.07170000
O        2.99910000       3.42360000       0.70860000
H        0.79250000       1.98760000       1.55560000
H        0.19160000       4.11060000      -1.06840000
H        0.38090000       3.92760000       0.69210000
H        2.62660000       3.58150000      -1.35650000
H        3.20070000       5.93880000      -0.80930000
H        1.81690000       6.03020000       0.30450000
H        4.56120000       4.82260000       0.95540000
H        3.20610000       5.00360000       2.10100000
