14
Properties=species:S:1:pos:R:3 gdb_129517=T pbc="F F F"
N       -0.13800000       1.40490000       0.12410000
C        0.08760000       0.03950000       0.03990000
O        1.19700000      -0.45540000       0.02430000
N       -1.07330000      -0.71260000       0.01670000
C       -1.07970000      -2.10670000       0.00190000
C       -0.05100000      -3.00090000      -0.04320000
O       -0.54770000      -4.25400000      -0.05770000
N       -1.92680000      -4.20920000      -0.01960000
C       -2.23590000      -2.93610000       0.01300000
H        0.69730000       1.94370000      -0.04790000
H       -0.96570000       1.78190000      -0.31250000
H       -1.95000000      -0.25660000       0.20950000
H        1.01690000      -2.88960000      -0.06660000
H       -3.27640000      -2.64310000       0.04520000
