16
Properties=species:S:1:pos:R:3 gdb_124238=T pbc="F F F"
C        0.00690000       1.55310000      -0.05450000
C        0.00540000       0.03810000       0.07300000
O        0.00570000      -0.50850000       1.15790000
C        0.00240000      -0.74400000      -1.17420000
C       -0.00290000      -2.11210000      -1.41890000
C       -0.00040000      -3.25390000      -0.46010000
N       -0.00950000      -2.30240000      -2.76700000
N       -0.00810000      -1.14380000      -3.37370000
N        0.00040000      -0.20320000      -2.42950000
H        0.89220000       1.89840000      -0.60110000
H       -0.87910000       1.90050000      -0.59870000
H        0.00870000       1.99150000       0.94350000
H       -0.83020000      -3.93310000      -0.67780000
H        0.92410000      -3.83280000      -0.55840000
H       -0.08310000      -2.89130000       0.56370000
H        0.00160000       0.76640000      -2.70450000
