18
Properties=species:S:1:pos:R:3 gdb_108724=T pbc="F F F"
C       -0.22910000       1.52320000      -0.04940000
C        0.08310000       0.01550000       0.00200000
C        0.81240000      -0.47350000      -1.20930000
C        2.05950000      -0.97240000      -1.27610000
C        2.41760000      -1.34910000      -2.66720000
O        3.48220000      -1.74400000      -3.08100000
C        1.16590000      -1.09290000      -3.49690000
N        0.01220000      -1.92400000      -3.03840000
C        0.16980000      -0.51850000      -2.57200000
H        0.69150000       2.11080000      -0.11240000
H       -0.84970000       1.77760000      -0.91440000
H       -0.77010000       1.83150000       0.84960000
H        0.67160000      -0.20800000       0.89740000
H       -0.85970000      -0.54120000       0.09190000
H        2.73580000      -1.12430000      -0.44410000
H        1.25350000      -0.82800000      -4.54340000
H       -0.67000000      -1.94170000      -3.79790000
H       -0.55810000       0.22470000      -2.87660000
