24
Properties=species:S:1:pos:R:3 gdb_22548=T pbc="F F F"
C        1.71880000       0.00130000      -1.07080000
C        0.54110000      -0.05500000      -0.09280000
C        0.89280000      -0.66090000       1.27660000
C       -0.22170000      -0.42320000       2.32960000
C       -0.36660000       1.03140000       2.78820000
C        1.20860000      -2.14620000       1.22910000
C        1.99610000      -2.76350000       2.35680000
N        0.76300000      -2.82100000       0.24020000
O        1.09200000      -4.18500000       0.35040000
H        2.09340000      -1.00030000      -1.29610000
H        1.41960000       0.46800000      -2.01470000
H        2.54760000       0.58990000      -0.66030000
H        0.16300000       0.96100000       0.06410000
H       -0.27730000      -0.63270000      -0.53420000
H        1.80110000      -0.16230000       1.65010000
H       -1.17030000      -0.78570000       1.91410000
H       -0.02050000      -1.04610000       3.20950000
H        0.57100000       1.40540000       3.21520000
H       -0.64700000       1.69880000       1.96800000
H       -1.13940000       1.11840000       3.55850000
H        1.43690000      -3.58380000       2.81700000
H        2.92340000      -3.20090000       1.97180000
H        2.24520000      -2.02570000       3.12180000
H        0.70500000      -4.54930000      -0.45230000
