14
Properties=species:S:1:pos:R:3 gdb_24472=T pbc="F F F"
N        0.00150000       1.33510000       0.00970000
C        1.17280000       2.04880000       0.00220000
N        2.35450000       1.51150000      -0.01230000
C        2.40070000       0.15520000      -0.02040000
N        3.49450000      -0.58400000      -0.03520000
C        3.03190000      -1.88310000      -0.03790000
C        1.65470000      -2.01430000      -0.02520000
C        1.17720000      -0.68000000      -0.01310000
C       -0.02140000      -0.03100000       0.00230000
H       -0.86960000       1.84310000       0.02100000
H        1.05670000       3.12770000       0.00940000
H        3.74950000      -2.69520000      -0.04940000
H        1.07730000      -2.92610000      -0.02470000
H       -0.99990000      -0.49650000       0.00920000
