20
Properties=species:S:1:pos:R:3 gdb_13087=T pbc="F F F"
C       -0.57910000       1.38790000      -0.06460000
C        0.08050000       0.01750000      -0.06600000
C        1.47210000      -0.16260000      -0.73390000
C        1.85590000      -1.15090000       0.39950000
C        0.67720000      -0.58990000       1.25070000
C        1.11880000       0.43570000       2.30820000
C        1.76910000      -0.26460000       3.47780000
O        2.92830000      -0.16320000       3.78920000
H        0.08550000       2.15980000       0.33740000
H       -0.84790000       1.68590000      -1.08410000
H       -1.49870000       1.39320000       0.53200000
H       -0.61670000      -0.71570000      -0.48790000
H        1.49350000      -0.53420000      -1.76120000
H        2.06230000       0.75830000      -0.69100000
H        1.69240000      -2.19300000       0.11250000
H        2.85680000      -1.06250000       0.82900000
H        0.04310000      -1.34260000       1.73220000
H        1.82920000       1.16040000       1.89970000
H        0.23940000       0.97880000       2.68130000
H        1.08170000      -0.93370000       4.04870000
