18
Properties=species:S:1:pos:R:3 gdb_97953=T pbc="F F F"
C       -0.30130000       1.45050000      -0.16720000
C       -0.13280000      -0.01380000       0.20540000
O        0.66090000      -0.38270000       1.05220000
N       -0.94060000      -0.88120000      -0.47640000
C       -0.97280000      -2.30390000      -0.16290000
C       -2.32380000      -2.79350000       0.08940000
C       -3.44600000      -3.19030000       0.26730000
C       -4.79640000      -3.67640000       0.51700000
O       -5.46950000      -3.87990000      -0.71980000
H       -0.77020000       1.97460000       0.67100000
H        0.68720000       1.88960000      -0.31710000
H       -0.90680000       1.60840000      -1.06350000
H       -1.62770000      -0.52540000      -1.11990000
H       -0.51610000      -2.88680000      -0.97460000
H       -0.33400000      -2.42920000       0.71760000
H       -4.73580000      -4.61100000       1.09800000
H       -5.33060000      -2.94600000       1.14640000
H       -6.34930000      -4.21310000      -0.51560000
