10
Properties=species:S:1:pos:R:3 gdb_132704=T pbc="F F F"
F        0.00740000       0.01790000       0.00370000
C       -0.02490000       1.34370000       0.01080000
C       -1.20940000       2.05370000       0.02980000
N       -1.23250000       3.39300000       0.03670000
C       -0.05160000       3.97400000       0.02370000
F       -0.04960000       5.28910000       0.03200000
N        1.14830000       3.40720000       0.00590000
C        1.15140000       2.09710000      -0.00060000
F        2.31380000       1.48180000      -0.01870000
H       -2.16060000       1.52980000       0.03960000
