19
Properties=species:S:1:pos:R:3 gdb_83144=T pbc="F F F"
C       -0.23290000       1.49690000       0.06960000
N        0.05470000       0.06670000       0.09540000
C        1.33710000      -0.47090000      -0.31360000
C        2.53180000       0.46130000      -0.34560000
O        2.63030000       1.03550000       0.96990000
C        1.81770000       0.37340000       1.85440000
N        1.83590000       0.53900000       3.10630000
C        0.90180000      -0.55780000       1.12020000
C        0.37020000      -1.76570000       1.84260000
H        0.60730000       2.15350000       0.33180000
H       -0.57710000       1.75740000      -0.93620000
H       -1.05150000       1.69470000       0.76700000
H        1.32110000      -1.31820000      -0.99360000
H        3.45280000      -0.08970000      -0.56920000
H        2.43490000       1.28360000      -1.06250000
H        2.56260000       1.20600000       3.37210000
H       -0.18190000      -1.45400000       2.73360000
H       -0.30010000      -2.32690000       1.18810000
H        1.18550000      -2.41750000       2.17070000
