14
Properties=species:S:1:pos:R:3 gdb_25462=T pbc="F F F"
N       -0.09420000       1.35050000       0.01110000
C        0.03270000       0.07850000       0.00350000
C        1.24520000      -0.72080000      -0.00770000
C        1.19110000      -2.06860000      -0.01480000
N        0.01100000      -2.79810000      -0.01210000
C       -1.07400000      -2.10850000      -0.00220000
N       -1.14780000      -0.72910000       0.00590000
C       -2.43160000      -0.11900000       0.01660000
O       -3.45200000      -0.75360000       0.01890000
H        0.82020000       1.79700000       0.00830000
H        2.19160000      -0.19270000      -0.01020000
H        2.09800000      -2.66520000      -0.02320000
H       -2.04530000      -2.59130000       0.00070000
H       -2.35370000       0.97390000       0.02230000
