18
Properties=species:S:1:pos:R:3 gdb_51370=T pbc="F F F"
O        0.60850000       1.25910000       2.28630000
C        0.27290000       1.81700000       1.26470000
N        1.09160000       2.04820000       0.19960000
C        2.41330000       1.48180000       0.13510000
C        3.38780000       1.64740000      -0.98280000
C        3.64220000       3.09690000      -1.49120000
C        2.89380000       4.20450000      -0.78430000
C        4.04370000       3.53140000      -0.09380000
C        3.75470000       2.10550000       0.44020000
H       -0.74980000       2.20890000       1.09110000
H        0.67220000       2.37900000      -0.65500000
H        2.40660000       0.46220000       0.51790000
H        3.76420000       0.79410000      -1.53460000
H        4.16660000       3.27590000      -2.42050000
H        3.14000000       5.19000000      -1.17120000
H        1.87830000       4.11840000      -0.42740000
H        4.93270000       4.07050000       0.20610000
H        4.41480000       1.61990000       1.14770000
