23
Properties=species:S:1:pos:R:3 gdb_122314=T pbc="F F F"
O       -0.00480000       1.43260000       0.26240000
C        0.06040000       0.03560000       0.01590000
C       -1.35410000      -0.52290000       0.08500000
C       -1.41220000      -2.03570000      -0.17270000
C       -2.81210000      -2.58450000      -0.12320000
C       -3.49250000      -2.98210000       1.15990000
C       -3.31500000      -4.01850000       0.08140000
C       -4.38190000      -3.82790000      -1.00140000
C       -3.88150000      -2.36000000      -1.20780000
H        0.88850000       1.78630000       0.22470000
H        0.49500000      -0.17410000      -0.97580000
H        0.69670000      -0.47120000       0.76080000
H       -1.77470000      -0.29560000       1.07150000
H       -1.97300000       0.00820000      -0.64820000
H       -0.96730000      -2.25530000      -1.15410000
H       -0.79260000      -2.55860000       0.56850000
H       -2.83420000      -3.08850000       2.01720000
H       -4.48550000      -2.61040000       1.40680000
H       -2.74330000      -4.92340000       0.25460000
H       -4.21700000      -4.44760000      -1.88570000
H       -5.42050000      -3.95550000      -0.67760000
H       -4.60180000      -1.55710000      -1.01850000
H       -3.44980000      -2.20910000      -2.20120000
