19
Properties=species:S:1:pos:R:3 gdb_84831=T pbc="F F F"
C       -0.01920000       1.47640000       0.03140000
C       -0.01750000      -0.03390000       0.09550000
C       -1.02150000      -0.73470000      -0.79980000
C       -1.21650000      -2.19240000      -0.49290000
C       -0.74050000      -2.80300000       0.58910000
C        0.08480000      -2.13570000       1.65540000
O        1.24880000      -2.90540000       1.95800000
C        0.48850000      -0.72100000       1.29600000
O        1.29380000      -0.62720000       0.10920000
H        0.77700000       1.88780000       0.65620000
H        0.14280000       1.81770000      -0.99710000
H       -0.97800000       1.88130000       0.37210000
H       -1.98520000      -0.20970000      -0.72820000
H       -0.70300000      -0.61230000      -1.84470000
H       -1.79730000      -2.75900000      -1.21700000
H       -0.91630000      -3.86340000       0.74870000
H       -0.48080000      -2.10820000       2.59660000
H        1.80960000      -2.84940000       1.17390000
H        0.85850000      -0.12160000       2.12840000
