20
Properties=species:S:1:pos:R:3 gdb_60329=T pbc="F F F"
C        0.07230000       1.54900000      -0.00690000
C        0.03960000       0.01540000      -0.02650000
C       -1.39210000      -0.52050000       0.10540000
C        0.67690000      -0.54470000      -1.29320000
O        2.05960000      -0.14460000      -1.32350000
C        2.77450000      -0.53880000      -2.38460000
N        2.31890000      -1.22880000      -3.34540000
C        4.20180000      -0.04580000      -2.27530000
O        5.02450000      -0.28210000      -3.12050000
H        1.09370000       1.92460000      -0.10670000
H       -0.52170000       1.96170000      -0.83150000
H       -0.34370000       1.93630000       0.92840000
H        0.62850000      -0.35510000       0.82330000
H       -2.01510000      -0.19180000      -0.73470000
H       -1.41320000      -1.61490000       0.12990000
H       -1.85810000      -0.15470000       1.02510000
H        0.63040000      -1.63870000      -1.32480000
H        0.18220000      -0.17030000      -2.19760000
H        3.07740000      -1.38370000      -4.01350000
H        4.42630000       0.54400000      -1.36430000
