20
Properties=species:S:1:pos:R:3 gdb_95123=T pbc="F F F"
C        0.21220000       1.66150000       0.09260000
C        0.13370000       0.13430000       0.13710000
C        0.66700000      -0.58030000      -1.12580000
C        1.15920000      -1.94930000      -0.60940000
N        1.54740000      -1.79750000       0.81140000
C        2.41610000      -0.66210000       1.07100000
C        0.93450000      -0.51300000       1.26200000
C        0.39310000      -0.51470000       2.64450000
O       -0.56020000       0.13550000       2.99970000
H        1.24540000       2.00130000      -0.04210000
H       -0.38120000       2.05790000      -0.73760000
H       -0.17310000       2.09160000       1.02050000
H       -0.91330000      -0.14880000       0.30100000
H       -0.09700000      -0.68240000      -1.90050000
H        1.48790000      -0.00550000      -1.56790000
H        0.35340000      -2.68990000      -0.63760000
H        2.00100000      -2.35290000      -1.18010000
H        3.06110000      -0.77180000       1.93900000
H        2.86590000      -0.12120000       0.24190000
H        0.94370000      -1.17960000       3.34610000
