19
Properties=species:S:1:pos:R:3 gdb_80916=T pbc="F F F"
C        0.04560000       1.44500000      -0.00610000
C       -0.00910000      -0.05060000       0.06800000
N        0.66550000      -0.95790000      -0.97960000
C        0.01900000      -1.91920000       0.01700000
C        0.64810000      -1.01320000       1.12000000
O        2.02910000      -0.98610000       1.25700000
C       -1.20960000      -1.00990000       0.06860000
C       -2.53990000      -1.02690000       0.69070000
N       -2.37150000      -1.05370000      -0.79600000
H        1.08580000       1.78450000       0.00200000
H       -0.42910000       1.82390000      -0.91850000
H       -0.46410000       1.89130000       0.85420000
H        0.11820000      -0.95140000      -1.84450000
H        0.07850000      -3.00010000      -0.10650000
H        0.19220000      -1.04490000       2.11040000
H        2.36510000      -0.97960000       0.34720000
H       -2.94570000      -1.94210000       1.11300000
H       -2.91310000      -0.11330000       1.14750000
H       -2.57330000      -0.13000000      -1.17460000
