19
Properties=species:S:1:pos:R:3 gdb_83849=T pbc="F F F"
C       -0.15300000       1.56130000       0.10790000
N        0.01370000       0.12010000      -0.02190000
C        0.49630000      -0.48620000      -1.25770000
C        0.94160000       0.34420000      -2.46000000
C        2.45370000       0.58530000      -2.46120000
N        2.90320000       1.04160000      -1.14840000
C        2.58180000       0.39890000       0.02260000
O        3.22210000       0.55120000       1.04590000
C        1.35310000      -0.47630000      -0.02420000
H        0.61120000       2.17220000      -0.39180000
H       -1.13430000       1.83420000      -0.29330000
H       -0.14040000       1.81020000       1.17270000
H       -0.02230000      -1.41090000      -1.50190000
H        0.66540000      -0.17770000      -3.38070000
H        0.41720000       1.30530000      -2.47550000
H        2.97660000      -0.33730000      -2.75560000
H        2.71740000       1.35240000      -3.19560000
H        3.78000000       1.54230000      -1.09750000
H        1.45440000      -1.35690000       0.60440000
