16
Properties=species:S:1:pos:R:3 gdb_126868=T pbc="F F F"
C       -0.00490000       1.54890000      -0.00730000
C       -0.04960000       0.02010000       0.08310000
N        0.59600000      -0.42110000       1.31070000
C       -0.03220000      -1.13500000       2.15890000
C        0.61510000      -1.54640000       3.39820000
N        0.09750000      -2.41080000       4.20190000
N       -1.10400000      -2.89210000       3.79640000
N       -1.87780000      -2.39990000       2.81230000
N       -1.39340000      -1.55270000       2.01180000
H        1.02210000       1.91180000       0.09120000
H       -0.40530000       1.88520000      -0.96870000
H       -0.60310000       2.00240000       0.78900000
H       -1.07970000      -0.33890000      -0.01490000
H        0.53120000      -0.39930000      -0.74940000
H        1.57030000      -1.11070000       3.67330000
H       -1.58890000      -3.48480000       4.45140000
