22
Properties=species:S:1:pos:R:3 gdb_65572=T pbc="F F F"
O       -0.17850000       1.55540000      -0.03560000
C        0.04650000       0.16710000      -0.00670000
C       -1.29860000      -0.55950000       0.09620000
N       -2.19340000      -0.07530000      -0.95400000
C       -2.37100000      -0.91010000      -2.13900000
C       -3.45840000      -0.77640000      -1.13150000
C        1.01690000      -0.41470000      -1.08880000
C        1.74300000      -1.20200000       0.03410000
C        1.05950000      -0.27660000       1.07740000
H       -0.99390000       1.67620000      -0.54470000
H       -1.16320000      -1.65390000       0.06720000
H       -1.75280000      -0.30290000       1.06090000
H       -2.42830000      -0.38390000      -3.08730000
H       -1.83960000      -1.85920000      -2.17470000
H       -3.65390000      -1.63640000      -0.49340000
H       -4.32360000      -0.15060000      -1.33080000
H        0.59070000      -0.97890000      -1.92220000
H        1.63570000       0.39320000      -1.48660000
H        1.40050000      -2.23780000       0.10860000
H        2.83450000      -1.20470000       0.01340000
H        1.69160000       0.57080000       1.35350000
H        0.65690000      -0.72980000       1.98840000
