15
Properties=species:S:1:pos:R:3 gdb_104563=T pbc="F F F"
O        0.12670000       1.47380000      -0.01370000
C        0.12880000       0.09670000      -0.28860000
C       -1.25570000      -0.52610000      -0.08730000
C       -1.27910000      -2.06230000       0.11890000
C       -1.62400000      -1.71070000       1.56350000
O       -1.83210000      -2.27920000       2.58350000
O       -1.62690000      -0.35180000       1.34770000
C       -2.27160000       0.02320000      -0.96260000
C       -3.10290000       0.45170000      -1.71590000
H       -0.19170000       1.58370000       0.89050000
H        0.43480000      -0.02580000      -1.33210000
H        0.84260000      -0.45180000       0.34680000
H       -2.06700000      -2.59430000      -0.41340000
H       -0.32390000      -2.57440000      -0.01130000
H       -3.83750000       0.84440000      -2.37570000
