21
Properties=species:S:1:pos:R:3 gdb_84030=T pbc="F F F"
C        0.02090000       1.57850000       0.11850000
C        0.04480000       0.07060000      -0.00650000
C        0.65950000      -0.64060000      -1.20630000
C        1.31140000       0.09690000      -2.36730000
C        2.75750000      -0.34140000      -2.62660000
O        3.67690000       0.17810000      -1.67440000
C        3.60840000      -0.37670000      -0.39500000
O        2.49740000       0.05390000       0.36020000
C        1.33140000      -0.69260000       0.14800000
H        0.98930000       2.01630000      -0.12910000
H       -0.74150000       2.01990000      -0.53260000
H       -0.21190000       1.86830000       1.14850000
H       -0.82950000      -0.42120000       0.41220000
H        0.16590000      -1.56460000      -1.49770000
H        0.72360000      -0.07900000      -3.27670000
H        1.31540000       1.17850000      -2.20550000
H        2.82590000      -1.44160000      -2.65470000
H        3.09970000       0.04070000      -3.59380000
H        3.61690000      -1.47950000      -0.45050000
H        4.49300000      -0.01600000       0.13540000
H        1.31660000      -1.63550000       0.69540000
