19
Properties=species:S:1:pos:R:3 gdb_39629=T pbc="F F F"
C       -0.05050000       1.06250000      -0.32620000
C        1.43600000       1.39890000      -0.09460000
C        1.43500000       0.12280000       0.78030000
O        0.03120000      -0.10280000       0.52600000
C        2.28360000      -1.01150000       0.29980000
C        3.81890000      -1.22260000       0.41040000
C        3.21860000      -2.29200000      -0.53190000
C        2.07220000      -2.53960000       0.47390000
O        2.39920000      -1.23590000      -1.17060000
H       -0.77110000       1.79430000       0.05740000
H       -0.32120000       0.79450000      -1.35350000
H        2.07240000       1.33250000      -0.97670000
H        1.63120000       2.32860000       0.44040000
H        1.62650000       0.28010000       1.85120000
H        4.43080000      -0.46390000      -0.07920000
H        4.22390000      -1.54760000       1.37230000
H        3.72640000      -2.99370000      -1.19290000
H        2.31870000      -2.98440000       1.44120000
H        1.14600000      -2.91950000       0.04440000
