14
Properties=species:S:1:pos:R:3 gdb_2386=T pbc="F F F"
N       -0.06160000       1.17530000       0.00080000
H       -0.68800000       0.91840000      -0.75530000
H        1.12180000       0.08070000       0.77280000
H        0.46500000       1.99140000      -0.29570000
C       -0.79850000       1.44320000       1.21980000
C       -1.33760000       0.26040000       1.95830000
C       -0.16250000       1.03250000       2.54020000
C        1.18670000       0.37170000       2.65520000
O        1.78670000       0.34780000       3.69860000
O        1.66670000      -0.21150000       1.54530000
H       -1.38910000       2.35730000       1.25220000
H       -2.29660000       0.34530000       2.45500000
H       -1.11920000      -0.72000000       1.54900000
H       -0.37330000       1.66130000       3.39600000
