17
Properties=species:S:1:pos:R:3 gdb_88496=T pbc="F F F"
C        0.84820000       1.15990000      -0.75190000
C        0.11630000       0.03620000      -0.06660000
O        0.87940000      -1.11120000       0.35310000
C        0.24800000      -0.32940000       1.35470000
C        1.14180000       0.35970000       2.35980000
C        2.41420000      -0.29050000       2.74960000
O        2.40560000       0.85170000       1.89890000
C        0.43740000       1.19720000       3.30190000
C       -0.19080000       1.88090000       4.06490000
H        1.80170000       1.36320000      -0.26720000
H        1.02860000       0.89900000      -1.80010000
H        0.23600000       2.06820000      -0.73590000
H       -0.83140000      -0.24110000      -0.53360000
H       -0.60850000      -0.80440000       1.83840000
H        2.80990000      -0.12680000       3.74950000
H        2.67730000      -1.22640000       2.26180000
H       -0.73190000       2.49230000       4.74450000
