14
Properties=species:S:1:pos:R:3 gdb_29848=T pbc="F F F"
C        0.01330000       1.47960000       0.00920000
N       -0.03910000       0.03270000       0.00150000
C       -1.16200000      -0.77500000       0.00450000
C       -0.73860000      -2.05630000      -0.00620000
O        0.65290000      -2.06350000      -0.01630000
C        1.09720000      -0.76140000      -0.01090000
O        2.25050000      -0.42650000      -0.01780000
C       -1.42790000      -3.27470000      -0.00900000
C       -2.01860000      -4.32460000      -0.01150000
H        1.06710000       1.76120000       0.00250000
H       -0.47770000       1.89480000      -0.87660000
H       -0.46360000       1.88480000       0.90730000
H       -2.16380000      -0.38140000       0.01390000
H       -2.53920000      -5.25010000      -0.01360000
