15
Properties=species:S:1:pos:R:3 gdb_61690=T pbc="F F F"
C       -0.09920000       1.59710000      -0.08490000
C        0.02490000       0.05380000      -0.01120000
N        0.73290000      -0.38860000       1.19370000
C        2.07680000      -0.13750000       1.39090000
N        2.73930000       0.66560000       0.66420000
C       -1.33270000      -0.52830000       0.06220000
N       -2.39570000      -0.96950000       0.14900000
C        0.66670000      -0.46100000      -1.25120000
N        1.13950000      -0.87200000      -2.22080000
H        0.89960000       2.02330000      -0.15310000
H       -0.68950000       1.87660000      -0.95970000
H       -0.59770000       1.95030000       0.81980000
H        0.38220000      -1.24160000       1.60160000
H        2.46200000      -0.69670000       2.25140000
H        3.70190000       0.73900000       0.98200000
