17
Properties=species:S:1:pos:R:3 gdb_55908=T pbc="F F F"
N       -0.03570000       1.29070000       0.08990000
C       -0.21130000      -0.03210000      -0.29040000
O        0.36160000      -0.54210000      -1.23030000
N       -1.09090000      -0.73270000       0.52710000
C       -1.16790000      -2.15590000       0.38230000
C       -2.36830000      -2.84520000       0.92830000
C       -2.17570000      -2.77130000      -0.58390000
C       -3.09840000      -1.91590000      -1.36500000
O       -3.52790000      -2.20240000      -2.45500000
H        0.43150000       1.83740000      -0.61780000
H       -0.81570000       1.76170000       0.52370000
H       -1.20590000      -0.38360000       1.46740000
H       -0.21690000      -2.68120000       0.41930000
H       -2.25240000      -3.81160000       1.40370000
H       -3.15410000      -2.22340000       1.34630000
H       -1.86210000      -3.67180000      -1.09860000
H       -3.38980000      -0.96860000      -0.85950000
