16
Properties=species:S:1:pos:R:3 gdb_131214=T pbc="F F F"
O        0.20150000       1.33030000       0.18080000
C        0.09980000      -0.00330000      -0.00540000
C        0.24790000      -0.82800000      -1.09970000
C       -0.00830000      -2.12380000      -0.57660000
N       -0.28520000      -2.10530000       0.72100000
N       -0.21340000      -0.78090000       1.05120000
N       -0.04250000      -3.30740000      -1.32610000
C        1.22340000      -3.99300000      -1.61120000
C        0.24600000      -4.56050000      -0.64120000
H        0.39930000       1.74440000      -0.66470000
H        0.48670000      -0.55350000      -2.11350000
H       -0.41520000      -0.48170000       1.98890000
H        1.31380000      -4.40410000      -2.61230000
H        2.13200000      -3.55570000      -1.20430000
H        0.49190000      -4.50130000       0.41440000
H       -0.38380000      -5.39720000      -0.92840000
