17
Properties=species:S:1:pos:R:3 gdb_56693=T pbc="F F F"
O        0.02670000       1.40020000       0.23510000
C        0.15420000      -0.01130000       0.11220000
C        0.81160000      -0.36880000      -1.15960000
N        1.28950000      -0.62910000      -2.17880000
C        0.98190000      -0.45990000       1.32670000
O        2.20810000       0.20480000       1.35870000
C        0.11320000      -0.49770000       2.62060000
N       -0.12760000      -1.93620000       2.35150000
C        1.06980000      -1.99270000       1.47640000
H       -0.37720000       1.75380000      -0.56430000
H       -0.82180000      -0.51350000       0.14760000
H        2.03670000       1.12950000       1.13670000
H        0.75020000      -0.28790000       3.48970000
H       -0.78630000       0.12420000       2.66460000
H       -0.09770000      -2.54090000       3.16440000
H        0.96160000      -2.60880000       0.57760000
H        2.00740000      -2.25360000       1.98410000
