18
Properties=species:S:1:pos:R:3 gdb_78139=T pbc="F F F"
C       -0.03930000       1.48750000       0.00610000
C        0.04460000      -0.01350000      -0.07310000
C        0.73120000      -0.72450000      -1.20310000
N        1.37930000      -0.62490000       0.10720000
C        1.31480000      -1.96050000       0.68180000
O        1.64670000      -2.21390000       1.81030000
C        0.76320000      -2.86560000      -0.35290000
C        0.40200000      -2.16070000      -1.43870000
C       -0.20750000      -2.64620000      -2.71150000
H        0.82380000       1.95100000      -0.47800000
H       -0.95320000       1.84880000      -0.47730000
H       -0.05630000       1.81120000       1.05160000
H       -0.78440000      -0.55820000       0.37790000
H        1.16010000      -0.13640000      -2.01130000
H        0.62220000      -3.92430000      -0.18100000
H       -0.36380000      -3.72700000      -2.69940000
H       -1.17120000      -2.15600000      -2.89460000
H        0.43450000      -2.40060000      -3.56620000
