12
Properties=species:S:1:pos:R:3 gdb_5420=T pbc="F F F"
O       -0.07210000      -0.04760000      -0.00060000
C       -0.02230000       1.15640000       0.00790000
N        1.17040000       1.86820000       0.00000000
C        2.46270000       1.32030000      -0.01860000
C        3.32880000       2.34610000      -0.02030000
N        2.59620000       3.53500000      -0.00310000
C        1.23760000       3.28600000       0.01010000
O        0.31500000       4.06840000       0.02640000
H       -0.89050000       1.83250000       0.02290000
H        2.60530000       0.25500000      -0.02830000
H        4.40520000       2.34480000      -0.03230000
H        2.96490000       4.46990000       0.00010000
