19
Properties=species:S:1:pos:R:3 gdb_85689=T pbc="F F F"
C       -0.87850000       1.20750000       0.00750000
C       -0.01970000      -0.04170000      -0.06840000
N        1.28710000       0.14580000      -0.76490000
C        2.00550000      -0.63560000       0.26830000
C        3.26120000      -0.04430000       0.73710000
N        4.24590000       0.40410000       1.14380000
C        0.76480000      -0.49930000       1.17240000
C        0.72520000       0.07890000       2.55210000
C        0.35180000      -1.36760000       2.31540000
H       -0.30610000       2.04230000       0.42000000
H       -1.22910000       1.49240000      -0.99000000
H       -1.76150000       1.03690000       0.63390000
H       -0.60600000      -0.87500000      -0.48570000
H        1.34830000      -0.24080000      -1.70030000
H        2.20240000      -1.68290000      -0.00310000
H        1.67170000       0.29340000       3.03750000
H       -0.06780000       0.78220000       2.78270000
H       -0.69490000      -1.64710000       2.38640000
H        1.04150000      -2.13610000       2.65030000
