16
Properties=species:S:1:pos:R:3 gdb_44845=T pbc="F F F"
N       -0.07080000       1.25430000      -0.01240000
C       -0.04020000      -0.00490000      -0.00470000
O        1.10080000      -0.78320000       0.00500000
C        0.64450000      -2.17170000       0.02850000
C       -0.62010000      -2.10610000      -0.83700000
C       -1.22360000      -0.96250000       0.01260000
C       -1.14920000      -1.56160000       1.43370000
O       -1.20200000      -2.99060000       1.50650000
C        0.08220000      -2.35880000       1.44600000
H        0.87650000       1.63830000      -0.01080000
H        1.47100000      -2.80470000      -0.28730000
H       -0.39540000      -1.80130000      -1.86020000
H       -1.20980000      -3.01950000      -0.82290000
H       -2.16500000      -0.51380000      -0.29260000
H       -1.52880000      -1.01750000       2.29140000
H        0.73070000      -2.47560000       2.30730000
