14
Properties=species:S:1:pos:R:3 gdb_2595=T pbc="F F F"
O        0.15080000       1.31060000      -0.41840000
C       -0.00010000       0.02300000       0.13820000
C       -1.42740000      -0.50760000       0.03790000
C       -1.89070000      -1.12710000      -1.26990000
C       -1.65280000      -2.00740000      -0.08000000
C       -2.38340000       0.26650000       0.78760000
N       -3.11080000       0.92740000       1.39910000
H       -0.34760000       1.93260000       0.12360000
H        0.65690000      -0.63860000      -0.43550000
H        0.32770000      -0.00830000       1.18780000
H       -2.91320000      -0.94650000      -1.57810000
H       -1.16560000      -1.12840000      -2.07580000
H       -0.76490000      -2.63000000      -0.06040000
H       -2.51050000      -2.42680000       0.43170000
