14
Properties=species:S:1:pos:R:3 gdb_130035=T pbc="F F F"
N        0.01120000       1.34230000       0.11930000
C        0.00830000      -0.01840000       0.03710000
N       -1.06590000      -0.74620000       0.01550000
C       -0.68270000      -2.16960000      -0.00560000
C        0.81930000      -2.13860000      -0.01110000
C        1.22820000      -0.83220000       0.01680000
N        2.58270000      -0.75840000       0.00850000
N        3.04380000      -1.97740000      -0.02190000
N        1.96830000      -2.83150000      -0.03280000
H        0.84270000       1.82360000      -0.18140000
H       -0.86440000       1.80140000      -0.07720000
H       -1.09300000      -2.68780000       0.87020000
H       -1.10220000      -2.66110000      -0.89210000
H        2.14570000      -3.82290000      -0.05520000
