15
Properties=species:S:1:pos:R:3 gdb_25475=T pbc="F F F"
O       -0.43570000       0.55560000      -0.66430000
C        0.20760000       0.90880000       0.28950000
C        1.34740000       1.90420000       0.22690000
C        1.50960000       2.68270000      -1.13260000
N        1.12220000       3.90040000      -0.38120000
C        1.01210000       5.25160000      -0.15700000
C        0.81370000       5.32870000       1.21080000
N        0.84050000       4.08410000       1.82790000
C        1.03100000       3.28150000       0.81250000
H       -0.00950000       0.53070000       1.31160000
H        2.26310000       1.44320000       0.61380000
H        2.52910000       2.71760000      -1.52200000
H        0.80140000       2.39120000      -1.90870000
H        1.04440000       6.00130000      -0.92850000
H        0.64240000       6.22390000       1.78990000
