20
Properties=species:S:1:pos:R:3 gdb_64774=T pbc="F F F"
C       -0.20760000       1.70440000       0.00660000
C        0.07210000       0.20070000       0.00970000
C       -1.24980000      -0.61760000       0.01620000
C       -2.12100000      -0.30680000       1.14810000
N       -2.79440000      -0.04860000       2.05160000
C        0.93850000      -0.27120000      -1.19460000
C        1.93390000      -1.28710000      -0.57490000
O        1.52140000      -1.48220000       0.77410000
C        0.95380000      -0.25440000       1.19200000
H        0.72940000       2.27000000       0.00260000
H       -0.78030000       1.99940000      -0.87930000
H       -0.78180000       2.00540000       0.88830000
H       -1.80720000      -0.43630000      -0.90970000
H       -1.01010000      -1.68590000       0.04920000
H        0.32670000      -0.72040000      -1.98190000
H        1.46690000       0.57510000      -1.64050000
H        1.93260000      -2.26230000      -1.06830000
H        2.95990000      -0.89060000      -0.60470000
H        1.73560000       0.49830000       1.38980000
H        0.39930000      -0.42960000       2.11750000
