20
Properties=species:S:1:pos:R:3 gdb_61627=T pbc="F F F"
C       -0.34700000       1.35820000       0.12740000
N        0.05560000      -0.03960000       0.11880000
C        1.42700000      -0.34240000      -0.27000000
C        0.97650000      -0.56390000       1.13420000
C        1.54220000       0.27100000       2.26470000
C        0.61910000       0.27990000       3.50470000
N        0.50950000      -1.06620000       4.07050000
C        1.09030000       1.28300000       4.48550000
N        1.47120000       2.03480000       5.27750000
H        0.44940000       2.07270000       0.38970000
H       -0.70530000       1.61980000      -0.87330000
H       -1.17940000       1.49730000       0.82570000
H        1.56500000      -1.17750000      -0.95220000
H        2.10080000       0.49800000      -0.44190000
H        0.72510000      -1.57670000       1.43920000
H        2.51520000      -0.13880000       2.56490000
H        1.72840000       1.30050000       1.94970000
H       -0.38480000       0.58480000       3.18700000
H        1.39810000      -1.33990000       4.48130000
H       -0.17330000      -1.07890000       4.82170000
