13
Properties=species:S:1:pos:R:3 gdb_132160=T pbc="F F F"
N        0.08370000       1.36770000       0.17470000
C       -0.03740000       0.00590000       0.06360000
C       -1.19540000      -0.70440000       0.03080000
C       -1.20680000      -2.15310000      -0.01350000
O       -2.20360000      -2.85880000      -0.04330000
C        0.16170000      -2.71450000      -0.02590000
F        0.28870000      -4.03420000      -0.06750000
C        1.25350000      -1.94020000      -0.00190000
O        1.18080000      -0.57860000       0.04230000
H        0.95560000       1.75260000      -0.15670000
H       -0.73110000       1.90290000      -0.07940000
H       -2.14610000      -0.18610000       0.04380000
H        2.27270000      -2.29910000      -0.01360000
