17
Properties=species:S:1:pos:R:3 gdb_55752=T pbc="F F F"
N       -0.17230000       1.29130000      -0.09260000
C        0.07530000      -0.04880000      -0.05780000
O        1.16830000      -0.56190000      -0.09670000
O       -1.10490000      -0.73070000      -0.00350000
C       -1.00350000      -2.13690000      -0.01120000
C       -0.34900000      -3.08850000       1.00630000
N       -0.99940000      -4.03860000      -0.01670000
C       -2.20530000      -3.07890000       0.03790000
C       -0.43890000      -3.08240000      -1.08640000
H        0.61520000       1.89960000       0.04840000
H       -1.09020000       1.63050000       0.13790000
H        0.73910000      -3.14030000       1.02760000
H       -0.79090000      -3.15950000       2.00320000
H       -2.77330000      -3.14550000       0.96880000
H       -2.85110000      -3.14020000      -0.84110000
H       -0.96450000      -3.14750000      -2.04210000
H        0.64340000      -3.13360000      -1.20120000
