18
Properties=species:S:1:pos:R:3 gdb_55373=T pbc="F F F"
O       -0.42720000       0.48080000       1.45020000
C       -0.12510000       1.18660000       0.33790000
O        0.93530000       1.06450000      -0.21200000
C       -1.22550000       2.13670000      -0.14960000
C       -2.63770000       1.53740000       0.03690000
N       -2.87420000       1.83460000       1.46660000
H       -3.82380000       1.65770000       1.76870000
H       -1.32470000       0.74210000       1.75990000
C       -2.46870000       3.23170000       1.64780000
C       -1.07590000       3.45480000       2.17320000
C       -1.33350000       3.44230000       0.67880000
H       -1.00080000       2.36300000      -1.19140000
H       -3.34900000       2.04710000      -0.62990000
H       -2.69080000       0.46060000      -0.15100000
H       -3.24980000       3.97060000       1.79800000
H       -0.85710000       4.42500000       2.60740000
H       -0.55660000       2.62580000       2.63810000
H       -1.22240000       4.37350000       0.13840000
