18
Properties=species:S:1:pos:R:3 gdb_86799=T pbc="F F F"
C        0.24380000       1.49400000      -0.23250000
C        0.00090000       0.01220000       0.04870000
O        0.49560000      -0.78310000      -1.04010000
C        1.36730000      -1.80180000      -0.57140000
C        2.72230000      -1.71510000      -1.31270000
C        2.59370000      -1.94340000      -2.74960000
N        2.49450000      -2.13880000      -3.88390000
C        1.48770000      -1.55670000       0.91030000
C        0.71610000      -0.53390000       1.25600000
H        1.31540000       1.70620000      -0.28910000
H       -0.21790000       1.77390000      -1.18300000
H       -0.19490000       2.11130000       0.55840000
H       -1.08530000      -0.15620000       0.13590000
H        0.92840000      -2.78990000      -0.78470000
H        3.15940000      -0.72620000      -1.14140000
H        3.41300000      -2.46030000      -0.90110000
H        2.11290000      -2.15660000       1.55960000
H        0.58200000      -0.12770000       2.25070000
