20
Properties=species:S:1:pos:R:3 gdb_86113=T pbc="F F F"
C        0.02790000       1.50580000      -0.05580000
C       -0.03720000      -0.00760000       0.09100000
O        0.38230000      -0.55880000      -1.17640000
C        0.80380000      -1.85760000      -1.22030000
C        0.69820000      -2.40750000      -2.61060000
N        1.26250000      -2.54120000      -0.25430000
C        1.39510000      -1.90940000       1.02170000
C        2.27330000      -0.67640000       1.14280000
C        0.77590000      -0.55380000       1.24400000
H        1.06190000       1.83180000      -0.19850000
H       -0.56400000       1.83350000      -0.91490000
H       -0.36640000       1.98770000       0.84410000
H       -1.08320000      -0.31450000       0.24070000
H        1.25210000      -1.77390000      -3.31120000
H        1.09970000      -3.41980000      -2.63590000
H       -0.34600000      -2.41400000      -2.94060000
H        1.41890000      -2.61460000       1.84540000
H        2.85990000      -0.54990000       2.04600000
H        2.75910000      -0.33540000       0.23460000
H        0.35150000      -0.33790000       2.22050000
