19
Properties=species:S:1:pos:R:3 gdb_105715=T pbc="F F F"
C        0.11570000       1.54800000      -0.05150000
C       -0.02100000       0.02620000       0.03200000
C       -1.47490000      -0.50580000       0.04470000
N       -1.47880000      -1.98140000       0.11420000
C       -2.53950000      -2.43620000       1.02690000
C       -2.84650000      -1.19760000       1.82090000
C       -2.27100000      -0.12840000       1.28460000
C       -2.19000000      -0.02080000      -1.16580000
N       -2.74080000       0.31820000      -2.12520000
H        1.17150000       1.83170000      -0.08100000
H       -0.36190000       1.94460000      -0.95270000
H       -0.33270000       2.04590000       0.81440000
H        0.49400000      -0.44210000      -0.81460000
H        0.44970000      -0.36240000       0.94030000
H       -1.53350000      -2.40740000      -0.80160000
H       -3.44360000      -2.80020000       0.51030000
H       -2.17980000      -3.26130000       1.65650000
H       -3.47280000      -1.20720000       2.70420000
H       -2.34560000       0.89440000       1.62710000
