15
Properties=species:S:1:pos:R:3 gdb_21956=T pbc="F F F"
O       -0.09330000       1.46460000      -0.03690000
C       -0.01860000       0.06870000      -0.28760000
C       -1.24500000      -0.55640000       0.36880000
C       -1.33710000      -2.04320000       0.20660000
N       -0.41880000      -2.71190000      -0.45250000
O       -0.80910000      -4.04830000      -0.41060000
C       -1.95590000      -4.13900000       0.27660000
C       -2.35510000      -2.91580000       0.70010000
H        0.67200000       1.88140000      -0.44270000
H       -0.01870000      -0.15280000      -1.36410000
H        0.89530000      -0.37300000       0.13400000
H       -1.24130000      -0.30560000       1.43660000
H       -2.14580000      -0.08780000      -0.04610000
H       -2.36420000      -5.13250000       0.38000000
H       -3.23150000      -2.66190000       1.27280000
