16
Properties=species:S:1:pos:R:3 gdb_16213=T pbc="F F F"
O        0.06230000       0.04990000      -0.21200000
C        0.02770000       1.24300000      -0.03980000
C       -1.21360000       2.10820000       0.19150000
O       -0.73540000       3.36730000       0.62600000
C        0.57030000       3.57090000       0.07610000
C        1.18680000       2.18810000      -0.00770000
C        2.43070000       1.74950000       0.74920000
C        2.45450000       1.83020000      -0.74310000
H       -1.77990000       2.18030000      -0.75330000
H       -1.87220000       1.68320000       0.95380000
H        0.49700000       4.03400000      -0.92170000
H        1.10320000       4.25920000       0.73760000
H        2.94910000       2.51080000       1.32250000
H        2.39560000       0.76540000       1.20400000
H        2.43470000       0.89990000      -1.30130000
H        3.00080000       2.64340000      -1.20980000
