17
Properties=species:S:1:pos:R:3 gdb_32154=T pbc="F F F"
C       -0.10650000       1.41600000       0.06030000
O       -0.12660000      -0.01290000       0.11700000
C        0.59840000      -0.59900000       1.07780000
N        1.29660000       0.14370000       1.92780000
C        1.98820000      -0.53530000       2.85150000
N        2.05420000      -1.84720000       3.01150000
C        1.33770000      -2.58960000       2.13800000
C        1.40730000      -4.08060000       2.31290000
C        0.58350000      -1.99930000       1.13960000
H        0.90800000       1.78750000      -0.10570000
H       -0.75090000       1.68020000      -0.77890000
H       -0.48960000       1.85050000       0.98730000
H        2.56210000       0.06990000       3.55050000
H        0.80280000      -4.60670000       1.57080000
H        2.44510000      -4.41910000       2.23150000
H        1.06190000      -4.35680000       3.31420000
H        0.00250000      -2.57440000       0.42990000
