23
Properties=species:S:1:pos:R:3 gdb_88593=T pbc="F F F"
C        2.59630000      -0.81700000       0.22800000
C        1.46050000      -1.73500000       0.62310000
C        1.67760000      -2.86460000       1.60110000
C        0.81190000      -1.68390000       1.99140000
C        1.25970000      -0.73570000       3.06080000
C        0.54580000       0.58570000       3.32700000
C       -0.63640000       1.04820000       2.50300000
C        0.41810000      -0.54650000       4.30980000
O       -0.83610000      -1.16390000       4.39330000
H        3.28420000      -0.63930000       1.05970000
H        3.17950000      -1.24930000      -0.59280000
H        2.22410000       0.15820000      -0.10590000
H        0.77510000      -1.95410000      -0.19230000
H        1.20730000      -3.82450000       1.41550000
H        2.65740000      -2.93560000       2.06510000
H       -0.25570000      -1.87630000       1.99900000
H        2.33330000      -0.72090000       3.22770000
H        1.19870000       1.39280000       3.65010000
H       -1.34770000       0.23990000       2.32780000
H       -1.17410000       1.84950000       3.02110000
H       -0.31110000       1.43770000       1.53230000
H        0.93450000      -0.45540000       5.26570000
H       -0.69220000      -2.10840000       4.51550000
