19
Properties=species:S:1:pos:R:3 gdb_65367=T pbc="F F F"
O       -0.03300000       1.38370000      -0.03890000
C        0.00540000      -0.01910000      -0.01200000
C       -0.47200000      -0.70830000       1.26000000
C       -1.35560000      -0.68920000       0.03510000
C       -2.60310000       0.13150000      -0.01330000
C       -3.49230000       0.08390000      -1.23090000
C       -3.95040000      -0.54740000       0.06020000
C        1.06730000      -0.61940000      -0.77720000
C        1.97480000      -1.10310000      -1.40200000
H        0.78380000       1.70510000       0.35900000
H        0.00320000      -1.63580000       1.55770000
H       -0.73870000      -0.03810000       2.07070000
H       -1.41050000      -1.62430000      -0.51540000
H       -2.51940000       1.09480000       0.47660000
H       -3.96490000       1.00380000      -1.55640000
H       -3.20380000      -0.57630000      -2.04230000
H       -3.96990000      -1.63100000       0.11530000
H       -4.73920000      -0.06230000       0.62460000
H        2.76660000      -1.53110000      -1.96530000
