17
Properties=species:S:1:pos:R:3 gdb_40353=T pbc="F F F"
C        0.62960000       1.45030000       0.19910000
O        1.10280000       0.25180000      -0.41950000
C       -0.22370000       0.25840000       0.10460000
C       -0.47900000      -0.60690000       1.29340000
C       -0.01960000      -2.10050000       1.41000000
C       -0.14290000      -1.65530000       2.89510000
O        0.34490000      -0.33590000       2.47810000
C       -1.65830000      -1.39760000       3.01850000
C       -1.89250000      -0.68060000       1.91870000
H        1.08610000       1.68700000       1.15670000
H        0.45620000       2.28910000      -0.47320000
H       -1.00800000       0.23140000      -0.65370000
H       -0.68200000      -2.88410000       1.03780000
H        1.01460000      -2.23080000       1.08640000
H        0.41180000      -2.10390000       3.71720000
H       -2.32230000      -1.73550000       3.80010000
H       -2.80220000      -0.24980000       1.52710000
