14
Properties=species:S:1:pos:R:3 gdb_25318=T pbc="F F F"
O       -0.06400000      -0.08660000       0.00030000
C       -0.01010000       1.12530000       0.01000000
C        1.22880000       1.89360000       0.00220000
C        1.32240000       3.28980000       0.01300000
N        2.65870000       3.59900000       0.00010000
C        3.41190000       2.45030000      -0.01840000
C        2.55590000       1.37930000      -0.01760000
C        0.32540000       4.28290000       0.03310000
C       -0.51530000       5.14660000       0.05020000
H       -0.93460000       1.74190000       0.02600000
H        3.01780000       4.53910000       0.00400000
H        4.48890000       2.49910000      -0.03050000
H        2.81970000       0.33430000      -0.02960000
H       -1.26620000       5.89750000       0.06500000
