13
Properties=species:S:1:pos:R:3 gdb_50806=T pbc="F F F"
N        0.97900000      -0.08230000      -0.40850000
C       -0.10050000       0.46630000      -0.02830000
N       -1.30300000      -0.20460000      -0.18970000
C       -2.52870000       0.27850000       0.17790000
N       -2.71330000       1.42010000       0.71960000
C       -3.63480000      -0.70740000      -0.13780000
O       -3.44790000      -1.78160000      -0.64970000
C       -4.99030000      -0.26050000       0.22930000
N       -6.06400000       0.06620000       0.50760000
H        1.77170000       0.52960000      -0.22470000
H       -0.22590000       1.44690000       0.43420000
H       -1.27120000      -1.12360000      -0.61230000
H       -3.69890000       1.58970000       0.91540000
