18
Properties=species:S:1:pos:R:3 gdb_41433=T pbc="F F F"
C       -0.00060000       1.55140000      -0.03240000
O        1.42500000       1.85340000      -0.02930000
C        1.95960000       0.56860000       0.02020000
C        3.40790000       0.15590000       0.04830000
C        3.11420000      -1.38780000       0.09900000
N        1.61610000      -1.51170000       0.08900000
C        1.14590000      -0.37400000       0.96430000
C       -0.01480000       0.01240000       0.02070000
C        1.16340000      -0.43760000      -0.87160000
H       -0.47200000       2.01990000       0.83900000
H       -0.45500000       1.95820000      -0.94300000
H        3.95970000       0.46040000      -0.84500000
H        3.94280000       0.52180000       0.92880000
H        3.52260000      -1.92070000      -0.76390000
H        3.50580000      -1.85950000       1.00430000
H        1.16340000      -0.42660000       2.05490000
H       -0.97310000      -0.50450000       0.02950000
H        1.20150000      -0.56540000      -1.95550000
