14
Properties=species:S:1:pos:R:3 gdb_14811=T pbc="F F F"
N       -0.64970000      -0.91880000      -0.76320000
C       -0.37130000       0.13560000      -0.38050000
C       -0.03280000       1.45660000       0.11590000
C        0.13630000       1.67070000       1.65120000
C        1.32010000       2.62520000       1.35490000
C        1.42770000       2.01960000      -0.08600000
C        2.46180000       1.00500000      -0.21160000
N        3.29820000       0.21150000      -0.29460000
H       -0.73880000       2.18200000      -0.29740000
H       -0.72760000       2.07230000       2.18130000
H        0.46490000       0.75230000       2.14100000
H        1.01440000       3.67240000       1.30790000
H        2.20650000       2.53680000       1.98180000
H        1.52850000       2.73310000      -0.90640000
