17
Properties=species:S:1:pos:R:3 gdb_68947=T pbc="F F F"
C       -0.16780000       1.56490000       0.10790000
C       -0.06740000       0.07280000       0.01240000
N        1.14340000      -0.55930000      -0.46780000
C        0.70850000      -0.93100000       0.89250000
C        1.61510000      -0.65720000       2.02300000
O        1.55220000      -1.22650000       3.08530000
C       -0.48930000      -1.85420000       0.87950000
N       -1.64110000      -1.09230000       1.42650000
C       -1.23930000      -0.90130000       0.01290000
H        0.80560000       2.00940000       0.32620000
H       -0.52130000       1.98380000      -0.84160000
H       -0.87620000       1.84600000       0.89180000
H        0.96890000      -1.31640000      -1.12590000
H        2.37920000       0.12160000       1.81260000
H       -0.48930000      -2.93670000       0.86560000
H       -2.44590000      -1.72220000       1.43870000
H       -1.92190000      -1.10770000      -0.80320000
