15
Properties=species:S:1:pos:R:3 gdb_113137=T pbc="F F F"
O        0.02360000       1.36440000      -0.38970000
C        0.02840000       0.12330000       0.29020000
C       -1.35020000      -0.49840000       0.25960000
N       -1.74310000      -1.08050000      -1.01920000
C       -1.54830000      -1.99530000       0.14180000
C       -0.44370000      -2.91850000       0.07750000
C        0.46630000      -3.70120000       0.05150000
C       -2.74450000      -2.52050000       0.77020000
N       -3.71310000      -2.92390000       1.25620000
H       -0.17420000       1.17600000      -1.31430000
H        0.75810000      -0.57780000      -0.13430000
H        0.31870000       0.33420000       1.32390000
H       -2.11220000       0.02640000       0.83190000
H       -2.73900000      -0.96390000      -1.19380000
H        1.27140000      -4.39400000       0.02000000
