22
Properties=species:S:1:pos:R:3 gdb_121155=T pbc="F F F"
C        0.24020000       1.33640000      -0.31690000
C       -0.01880000      -0.05280000       0.24050000
O       -1.18450000      -0.57390000      -0.37480000
C       -1.50580000      -1.87790000       0.01920000
C       -2.23730000      -2.12900000       1.37550000
C       -3.18650000      -3.11950000       0.63460000
C       -2.71960000      -2.48670000      -0.67910000
C       -3.52420000      -1.79240000      -1.70450000
N       -2.81610000      -3.05500000      -2.01460000
H        1.13600000       1.76940000       0.13810000
H        0.38600000       1.29440000      -1.40020000
H       -0.60730000       1.99620000      -0.11110000
H        0.83930000      -0.71740000       0.04310000
H       -0.15020000      -0.01170000       1.33340000
H       -0.62230000      -2.53340000      -0.07210000
H       -1.64750000      -2.51950000       2.20670000
H       -2.76200000      -1.22380000       1.69170000
H       -2.86300000      -4.16020000       0.72680000
H       -4.25150000      -3.05910000       0.86670000
H       -4.60820000      -1.87230000      -1.68900000
H       -3.13140000      -0.86070000      -2.10010000
H       -1.96690000      -2.85200000      -2.53860000
