18
Properties=species:S:1:pos:R:3 gdb_76109=T pbc="F F F"
C        0.11660000       1.54430000       0.03130000
C       -0.02270000       0.05600000      -0.08750000
C       -0.95150000      -0.74910000       0.72920000
N        0.49450000      -0.91750000       0.97900000
C        0.99650000      -1.82530000      -0.12930000
C        0.38320000      -3.13320000      -0.23630000
C       -0.17190000      -4.19090000      -0.38810000
C        0.57450000      -0.77750000      -1.22540000
O       -0.21370000      -1.17250000      -2.30940000
H        1.14010000       1.86600000      -0.18970000
H       -0.55480000       2.04850000      -0.67320000
H       -0.13480000       1.88170000       1.04090000
H       -1.45500000      -0.23630000       1.54310000
H       -1.51580000      -1.57860000       0.31090000
H        2.08100000      -1.91830000      -0.03800000
H       -0.62880000      -5.14440000      -0.49260000
H        1.45580000      -0.28590000      -1.64600000
H       -0.79720000      -1.88190000      -2.01420000
