15
Properties=species:S:1:pos:R:3 gdb_5750=T pbc="F F F"
O        0.35330000       1.32210000       0.35790000
C        0.10340000      -0.02180000       0.04470000
C       -1.40890000      -0.51830000       0.04720000
N       -1.19850000      -0.86080000      -1.36880000
C       -1.55730000      -1.50030000      -2.51630000
C       -0.43110000      -1.45930000      -3.33080000
C        0.63790000      -0.81510000      -2.63570000
C        0.10550000      -0.46110000      -1.41310000
H        0.00340000       1.86030000      -0.36110000
H        0.73780000      -0.60840000       0.71480000
H       -1.62750000      -1.37800000       0.68750000
H       -2.14540000       0.27310000       0.21440000
H       -2.54450000      -1.89590000      -2.69110000
H       -0.38550000      -1.84430000      -4.33920000
H        1.63770000      -0.64870000      -3.00390000
