25
Properties=species:S:1:pos:R:3 gdb_121253=T pbc="F F F"
C        0.00230000       1.60630000       0.05610000
C       -0.02560000       0.07690000      -0.01220000
C        0.70460000      -0.48260000      -1.23910000
C        0.72940000      -2.01420000      -1.31540000
C       -0.66330000      -2.67940000      -1.46740000
C       -0.40240000      -4.04140000      -2.15120000
C        0.84450000      -3.81920000      -2.99670000
C        0.89190000      -2.57700000      -3.85280000
C        1.53520000      -2.57590000      -2.48480000
H        1.03080000       1.98270000       0.09460000
H       -0.47670000       2.05040000      -0.82380000
H       -0.52140000       1.97830000       0.94250000
H        0.42780000      -0.33890000       0.89790000
H       -1.06740000      -0.26720000      -0.01540000
H        0.24190000      -0.08560000      -2.15350000
H        1.73820000      -0.10930000      -1.23870000
H        1.19380000      -2.39290000      -0.39240000
H       -1.18230000      -2.78920000      -0.51190000
H       -1.30430000      -2.05320000      -2.09880000
H       -0.19250000      -4.81100000      -1.39810000
H       -1.26620000      -4.38740000      -2.72990000
H        1.41360000      -4.68480000      -3.31830000
H        1.55710000      -2.59220000      -4.70940000
H       -0.01870000      -2.00990000      -4.01870000
H        2.61750000      -2.51560000      -2.43280000
