23
Properties=species:S:1:pos:R:3 gdb_96324=T pbc="F F F"
C        0.62550000       1.45860000       0.23480000
C       -0.14910000       0.19100000      -0.13510000
C        0.39940000      -0.45850000      -1.41450000
C       -0.10690000      -1.87860000      -1.68760000
O        0.00060000      -2.06120000      -3.10000000
C        0.71160000      -2.95110000      -0.95260000
C        0.59750000      -2.93920000       0.57770000
C        0.83860000      -1.57430000       1.22820000
O       -0.24520000      -0.69230000       0.98360000
H        1.67420000       1.23060000       0.45510000
H        0.60740000       2.18010000      -0.58890000
H        0.18350000       1.92690000       1.11820000
H       -1.19500000       0.46640000      -0.32060000
H        0.10300000       0.16900000      -2.26130000
H        1.49650000      -0.46330000      -1.40960000
H       -1.16320000      -1.94930000      -1.37860000
H       -0.24030000      -2.97170000      -3.29870000
H        0.40030000      -3.93980000      -1.31790000
H        1.76010000      -2.82850000      -1.25470000
H       -0.40330000      -3.26870000       0.88230000
H        1.30870000      -3.66400000       0.99390000
H        0.89440000      -1.69410000       2.31630000
H        1.79780000      -1.14510000       0.90450000
