21
Properties=species:S:1:pos:R:3 gdb_40735=T pbc="F F F"
C       -0.07570000       1.26300000      -0.30160000
O        0.80900000       0.16750000      -0.54730000
C       -0.44330000      -0.10430000       0.08820000
C       -0.37760000      -0.57190000       1.52600000
C       -1.74910000      -0.46310000       2.26180000
C       -2.28470000      -1.88090000       2.39990000
C       -2.40060000      -2.72290000       1.15300000
C       -1.18460000      -2.85290000       2.03680000
C        0.06140000      -2.06230000       1.66520000
H        0.25420000       1.96670000       0.46220000
H       -0.51730000       1.71680000      -1.18790000
H       -1.14890000      -0.62800000      -0.55910000
H        0.36160000       0.07020000       2.01450000
H       -1.60260000      -0.03350000       3.25860000
H       -2.43960000       0.20360000       1.73140000
H       -2.96800000      -2.08750000       3.21650000
H       -3.11580000      -3.53840000       1.17270000
H       -2.30550000      -2.25460000       0.17910000
H       -1.05420000      -3.77910000       2.58590000
H        0.54630000      -2.42140000       0.75090000
H        0.79990000      -2.15640000       2.46860000
