23
Properties=species:S:1:pos:R:3 gdb_90979=T pbc="F F F"
C       -0.13080000       1.54620000      -0.01920000
C        0.03320000       0.02470000       0.01780000
C        0.94120000      -0.53920000      -1.11070000
C        1.97600000      -1.27620000      -0.27130000
C        1.26700000      -1.97420000       0.93210000
C        2.54150000      -1.74140000       1.77720000
C        2.32820000      -0.42550000       0.99190000
C        0.77700000      -0.51470000       1.25950000
C        0.17510000      -0.17440000       2.60790000
H        0.83950000       2.05060000       0.05960000
H       -0.59260000       1.86530000      -0.95960000
H       -0.76350000       1.90900000       0.79730000
H       -0.96440000      -0.43210000      -0.02720000
H        0.40630000      -1.20640000      -1.79460000
H        1.39050000       0.25690000      -1.71530000
H        2.78370000      -1.81000000      -0.77680000
H        0.64480000      -2.87220000       0.88940000
H        2.43450000      -1.70920000       2.86360000
H        3.41900000      -2.33200000       1.49800000
H        2.94720000       0.47460000       1.01920000
H        0.16790000       0.90760000       2.77750000
H       -0.86460000      -0.51930000       2.66290000
H        0.71790000      -0.63160000       3.43940000
