14
Properties=species:S:1:pos:R:3 gdb_127959=T pbc="F F F"
C        0.03990000       1.41910000       0.00740000
N        0.04370000      -0.03460000       0.01150000
C       -1.07640000      -0.62050000      -0.01430000
N       -2.39120000      -0.17540000      -0.04770000
N       -3.27860000      -1.21090000      -0.06630000
N       -2.64460000      -2.29820000      -0.04790000
N       -1.29320000      -2.01100000      -0.01580000
C       -0.29970000      -3.00150000       0.01130000
O       -0.52480000      -4.17770000       0.00920000
H        1.07010000       1.77990000       0.03160000
H       -0.43410000       1.83560000      -0.89510000
H       -0.47750000       1.84050000       0.88350000
H       -2.73080000       0.77000000      -0.05820000
H        0.69410000      -2.52800000       0.03430000
