17
Properties=species:S:1:pos:R:3 gdb_66835=T pbc="F F F"
C       -0.13710000       1.53190000      -0.05140000
C       -0.01310000       0.04690000       0.03150000
C        0.00950000      -1.03310000      -1.04710000
C        1.09780000      -1.87750000      -0.34600000
O        0.43530000      -2.96260000       0.35450000
C       -0.23820000      -1.92060000       1.09850000
C        0.92210000      -0.89670000       0.85950000
C       -1.03740000      -1.05370000       0.08490000
O       -2.39330000      -0.94270000      -0.10840000
H        0.78600000       1.99330000      -0.42010000
H       -0.94860000       1.81230000      -0.73060000
H       -0.36150000       1.96770000       0.92890000
H       -0.28030000      -0.96610000      -2.08790000
H        2.01900000      -2.17050000      -0.84770000
H       -0.66870000      -2.23810000       2.04720000
H        1.68290000      -0.62520000       1.58730000
H       -2.69850000      -1.71940000      -0.59190000
