19
Properties=species:S:1:pos:R:3 gdb_94008=T pbc="F F F"
C       -0.52890000       1.49250000      -0.01790000
C        0.18690000       0.15210000      -0.04650000
O        1.20690000       0.19350000      -1.03950000
C        2.27970000      -0.66980000      -0.67630000
C        1.93140000      -1.27440000       0.70570000
C        3.14270000      -1.47690000       1.59190000
O        3.45150000      -2.53610000       2.07560000
C        0.91370000      -0.25260000       1.25050000
O        1.64250000       0.81480000       1.83700000
H        0.17210000       2.29450000       0.22850000
H       -0.95520000       1.70960000      -1.00040000
H       -1.34640000       1.48330000       0.71130000
H       -0.53910000      -0.64520000      -0.28470000
H        2.40580000      -1.45510000      -1.43060000
H        3.20620000      -0.08170000      -0.63750000
H        1.43670000      -2.24220000       0.59330000
H        3.74850000      -0.56320000       1.75870000
H        0.22820000      -0.70980000       1.97660000
H        1.01720000       1.46300000       2.17440000
