23
Properties=species:S:1:pos:R:3 gdb_116206=T pbc="F F F"
C       -0.03720000       1.63860000      -0.06930000
C       -0.14050000       0.10990000      -0.12770000
C        0.73120000      -0.51420000      -1.21920000
C        2.24440000      -0.30540000      -1.02770000
O        2.86590000      -1.31890000      -1.80030000
C        2.10610000      -2.50140000      -1.60050000
C        0.65790000      -2.04670000      -1.36490000
C       -0.27780000      -2.92470000      -0.57520000
C       -0.49180000      -2.72620000      -2.05660000
H        0.97930000       1.96520000       0.17350000
H       -0.30910000       2.09000000      -1.02990000
H       -0.70610000       2.04970000       0.69290000
H        0.13520000      -0.31720000       0.84490000
H       -1.18880000      -0.16790000      -0.29700000
H        0.45430000      -0.06710000      -2.18360000
H        2.61120000       0.65900000      -1.38710000
H        2.51150000      -0.40370000       0.04030000
H        2.22840000      -3.13230000      -2.48670000
H        2.48480000      -3.05770000      -0.72650000
H        0.10180000      -3.88500000      -0.23810000
H       -0.98250000      -2.46640000       0.10990000
H       -1.33250000      -2.11290000      -2.36830000
H       -0.27540000      -3.55320000      -2.72590000
