17
Properties=species:S:1:pos:R:3 gdb_86874=T pbc="F F F"
O        0.41680000       0.77730000       0.81790000
C       -0.19180000      -0.17690000      -0.00010000
C       -1.61980000       0.15890000      -0.44170000
C       -1.85530000      -0.70910000      -1.72590000
C       -0.44790000      -0.89230000      -2.36100000
C        0.53340000      -0.34400000      -1.33300000
O        1.67480000       0.00130000      -1.50790000
C       -2.47850000      -2.04110000      -1.36000000
O       -3.60990000      -2.35940000      -1.61300000
H        1.31160000       0.89630000       0.46350000
H       -0.19090000      -1.17270000       0.48570000
H       -2.36770000      -0.02490000       0.33270000
H       -1.66390000       1.22140000      -0.70150000
H       -2.55080000      -0.21040000      -2.40280000
H       -0.20950000      -1.94220000      -2.57270000
H       -0.33430000      -0.35240000      -3.30410000
H       -1.79840000      -2.73680000      -0.81030000
