17
Properties=species:S:1:pos:R:3 gdb_56756=T pbc="F F F"
O       -0.02180000       1.44930000       0.00990000
C        0.03690000       0.03510000       0.01500000
C        0.65070000      -0.49070000      -1.22280000
N        1.17650000      -0.89450000      -2.16950000
C        0.76780000      -0.50940000       1.23630000
C        0.44100000      -0.25640000       2.72390000
N        1.68250000      -1.16520000       2.81020000
C        1.00650000      -1.96860000       1.68110000
C        2.23810000      -0.29110000       1.67050000
H        0.88000000       1.78780000      -0.03860000
H       -1.00630000      -0.30030000       0.04430000
H        0.60400000       0.74750000       3.12150000
H       -0.46270000      -0.71230000       3.13660000
H        0.14430000      -2.55030000       2.01720000
H        1.70200000      -2.57700000       1.09870000
H        3.02440000      -0.77770000       1.08870000
H        2.53810000       0.70710000       2.00090000
