20
Properties=species:S:1:pos:R:3 gdb_83205=T pbc="F F F"
C        0.07210000       1.60990000      -0.42590000
C        0.08660000       0.13290000      -0.08700000
C        1.24330000      -0.82180000      -0.28370000
C        2.66520000      -0.28710000      -0.41170000
C        2.92050000       0.60760000       0.82650000
C        1.85580000       0.18010000       1.88530000
C        1.40270000       1.29310000       2.72190000
N        1.04330000       2.17280000       3.38050000
C        0.73520000      -0.52140000       1.11310000
H        1.04000000       2.09830000      -0.30860000
H       -0.23740000       1.75030000      -1.46740000
H       -0.64170000       2.14510000       0.20840000
H       -0.86950000      -0.33560000      -0.31340000
H        1.03400000      -1.77840000      -0.75080000
H        3.35850000      -1.13490000      -0.41730000
H        2.83440000       0.26410000      -1.34290000
H        3.93130000       0.48750000       1.22330000
H        2.80610000       1.66530000       0.58680000
H        2.30010000      -0.56180000       2.55980000
H        0.15010000      -1.24060000       1.67520000
