19
Properties=species:S:1:pos:R:3 gdb_105752=T pbc="F F F"
C        0.01310000       1.51620000       0.15610000
C       -0.08930000      -0.00480000       0.04340000
C       -1.53430000      -0.52130000      -0.08910000
C       -1.61310000      -2.07790000       0.04220000
O       -1.96960000      -2.28090000       1.39730000
C       -2.83560000      -1.21270000       1.67940000
O       -2.28220000      -0.07130000       1.06010000
C       -2.16770000      -0.05740000      -1.32600000
C       -2.67330000       0.30200000      -2.35560000
H        1.05560000       1.82280000       0.28190000
H       -0.37890000       2.00390000      -0.74140000
H       -0.55780000       1.87630000       1.01550000
H        0.48010000      -0.36310000      -0.82240000
H        0.33350000      -0.48210000       0.93500000
H       -2.37540000      -2.48390000      -0.63600000
H       -0.65560000      -2.56640000      -0.14650000
H       -3.84740000      -1.41330000       1.28270000
H       -2.87440000      -1.05570000       2.76060000
H       -3.12570000       0.62800000      -3.25970000
