12
Properties=species:S:1:pos:R:3 gdb_20695=T pbc="F F F"
C       -0.02960000       1.50090000       0.00720000
C        0.00140000       0.00350000      -0.01860000
N       -0.03560000      -0.62050000      -1.14880000
C       -0.00580000      -2.01210000      -1.14480000
O       -0.03440000      -2.70260000      -2.11580000
O        0.06390000      -2.67650000       0.10090000
N        0.10280000      -2.00990000       1.29600000
C        0.07260000      -0.72580000       1.23410000
H        0.86450000       1.89150000       0.50680000
H       -0.08120000       1.89110000      -1.00890000
H       -0.89420000       1.85370000       0.58140000
H        0.10410000      -0.21480000       2.19080000
