17
Properties=species:S:1:pos:R:3 gdb_16710=T pbc="F F F"
C        0.04460000       1.44960000      -0.07510000
N       -0.00090000       0.00870000       0.09930000
C       -1.36890000      -0.55170000       0.32740000
C       -1.12270000      -1.40550000       1.59120000
C       -0.29050000      -0.39980000       2.46200000
C        0.72960000      -0.50660000       1.27370000
C        0.26760000      -1.98150000       1.24670000
O        0.77250000      -3.05950000       1.18170000
H        1.07830000       1.76560000      -0.24780000
H       -0.53890000       1.72140000      -0.96060000
H       -0.35260000       2.02750000       0.77980000
H       -2.10770000       0.23830000       0.51670000
H       -1.70670000      -1.14310000      -0.53020000
H       -1.94140000      -2.00820000       1.97760000
H       -0.74320000       0.57890000       2.63290000
H        0.07380000      -0.82970000       3.39680000
H        1.77130000      -0.19910000       1.33010000
