22
Properties=species:S:1:pos:R:3 gdb_102474=T pbc="F F F"
C       -0.42660000       0.91530000       0.63420000
C       -0.17610000      -0.47790000       0.05350000
C        0.49620000      -0.44010000      -1.32610000
O        1.73420000       0.20040000      -1.17230000
C        2.43190000       0.43420000      -2.37810000
C        0.65850000      -1.88010000      -1.86430000
O        1.65730000      -2.54350000      -1.65790000
N       -0.42450000      -2.34190000      -2.55560000
C       -0.50470000      -3.69340000      -3.07480000
H        0.51080000       1.46930000       0.71870000
H       -1.10500000       1.49480000      -0.00250000
H       -0.87870000       0.84700000       1.62830000
H        0.47440000      -1.05790000       0.71740000
H       -1.11850000      -1.03120000      -0.03380000
H       -0.13940000       0.13270000      -2.02930000
H        3.32990000       1.00000000      -2.11970000
H        2.72860000      -0.50350000      -2.86330000
H        1.82940000       1.03070000      -3.08200000
H       -1.20050000      -1.71890000      -2.70790000
H       -0.61860000      -3.69660000      -4.16460000
H        0.42830000      -4.19420000      -2.81330000
H       -1.34320000      -4.24410000      -2.63370000
