15
Properties=species:S:1:pos:R:3 gdb_132587=T pbc="F F F"
C        0.01820000       1.49710000       0.02800000
C        0.02250000      -0.01080000       0.02310000
N       -0.04620000      -0.63120000      -1.15600000
C       -0.04500000      -1.96320000      -1.20330000
C        0.02650000      -2.72990000      -0.04810000
F        0.02530000      -4.06190000      -0.13450000
C        0.09900000      -2.12410000       1.19390000
C        0.09690000      -0.73380000       1.22820000
O        0.16790000      -0.13020000       2.44440000
H        0.93210000       1.91130000       0.47530000
H       -0.04550000       1.85450000      -1.00020000
H       -0.83700000       1.90600000       0.58300000
H       -0.10180000      -2.44170000      -2.17620000
H        0.15540000      -2.70430000       2.10660000
H        0.15810000       0.82520000       2.32630000
