21
Properties=species:S:1:pos:R:3 gdb_36031=T pbc="F F F"
C       -0.09390000      -1.28500000      -0.00490000
C       -0.04130000      -0.08390000       0.00140000
C        0.01130000       1.37300000       0.00970000
C        1.42070000       1.97590000      -0.00070000
C        2.52380000       1.25430000       0.73840000
C        2.50820000       1.26420000      -0.77190000
C        1.48910000       3.48230000       0.00870000
C        0.52320000       4.37770000      -0.72940000
C        0.54100000       4.36730000       0.78160000
H       -0.14760000      -2.34540000      -0.01100000
H       -0.54730000       1.74260000      -0.86030000
H       -0.53000000       1.73200000       0.89490000
H        3.26340000       1.85820000       1.25330000
H        2.28030000       0.32060000       1.23260000
H        2.25440000       0.33710000      -1.27310000
H        3.23710000       1.87500000      -1.29390000
H        2.51800000       3.83380000      -0.00100000
H        0.92390000       5.24160000      -1.24820000
H       -0.33190000       3.93080000      -1.22400000
H       -0.30230000       3.91340000       1.29000000
H        0.95390000       5.22410000       1.30260000
