23
Properties=species:S:1:pos:R:3 gdb_93628=T pbc="F F F"
C       -0.85610000       1.17330000      -0.03700000
C        0.08960000      -0.02580000       0.00320000
C        1.14940000      -0.03790000      -1.12760000
C        2.34720000      -0.86380000      -0.58800000
C        1.92770000      -1.30320000       0.84760000
C        3.04260000      -1.55100000       1.74810000
C        3.96860000      -1.75390000       2.48890000
C        0.91520000      -0.20960000       1.30070000
C        1.59350000       1.06930000       1.80410000
H       -0.30990000       2.12020000       0.02450000
H       -1.42720000       1.18450000      -0.97160000
H       -1.57530000       1.14570000       0.78890000
H       -0.51950000      -0.93440000      -0.10420000
H        0.73930000      -0.45330000      -2.05270000
H        1.46380000       0.98530000      -1.36020000
H        2.58080000      -1.73300000      -1.20760000
H        3.25560000      -0.25830000      -0.53890000
H        1.35760000      -2.23760000       0.75690000
H        4.78520000      -1.93780000       3.14200000
H        0.28330000      -0.60280000       2.10510000
H        2.20570000       1.54470000       1.03010000
H        0.85050000       1.80080000       2.13420000
H        2.24850000       0.84640000       2.65050000
