17
Properties=species:S:1:pos:R:3 gdb_94357=T pbc="F F F"
C       -0.12430000       1.62790000       0.52520000
C        0.08190000       0.18710000       0.10310000
O        1.22900000       0.00880000      -0.77150000
C        1.89110000      -0.89340000       0.13920000
C        0.73450000      -0.75770000       1.12090000
O        0.86920000      -0.49100000       2.49000000
C        0.19120000      -1.70830000       2.10880000
C       -1.27490000      -1.72970000       2.38850000
O       -1.91140000      -2.74060000       2.53560000
H        0.75080000       2.01000000       1.05700000
H       -0.29740000       2.24810000      -0.35890000
H       -0.99530000       1.71600000       1.18250000
H       -0.82250000      -0.21720000      -0.37100000
H        2.04170000      -1.88920000      -0.29430000
H        2.84790000      -0.50130000       0.50480000
H        0.72740000      -2.63490000       2.30700000
H       -1.73360000      -0.71790000       2.44780000
