17
Properties=species:S:1:pos:R:3 gdb_17501=T pbc="F F F"
C       -0.04090000       1.56920000       0.16090000
C        0.08680000       0.08210000       0.05740000
N       -0.86180000      -0.86540000       0.68720000
C        0.58870000      -0.93630000       1.00810000
C        1.30060000      -1.69060000      -0.16610000
O        0.32680000      -2.04270000      -1.15230000
C        0.81260000      -0.69900000      -1.12710000
C        1.37430000      -0.10360000      -2.37590000
H        0.89540000       2.07070000      -0.10760000
H       -0.82510000       1.95150000      -0.50350000
H       -0.29420000       1.86790000       1.18410000
H       -1.29840000      -0.35980000       1.46020000
H        0.96140000      -0.82500000       2.01810000
H        2.21670000      -2.26810000      -0.12220000
H        0.57290000       0.18950000      -3.06370000
H        1.97060000       0.78780000      -2.15530000
H        2.01100000      -0.83150000      -2.88580000
