20
Properties=species:S:1:pos:R:3 gdb_64303=T pbc="F F F"
C        0.05030000       1.51760000      -0.01470000
C       -0.04370000      -0.02190000      -0.00890000
C       -1.51490000      -0.45990000      -0.04950000
C        0.77240000      -0.63420000      -1.19550000
N        2.04900000      -1.03730000      -0.58240000
C        1.88220000      -1.12830000       0.76750000
C        0.71780000      -0.58080000       1.19680000
C        0.34760000      -0.45020000       2.58020000
O       -0.65870000       0.09790000       3.00220000
H        1.09370000       1.84780000      -0.04390000
H       -0.46560000       1.93540000      -0.88720000
H       -0.41270000       1.92340000       0.88810000
H       -2.00560000      -0.08840000      -0.95680000
H       -1.60150000      -1.55120000      -0.03820000
H       -2.04540000      -0.06870000       0.82080000
H        0.25800000      -1.51030000      -1.61390000
H        0.93780000       0.08330000      -2.00470000
H        2.66840000      -1.66680000      -1.06750000
H        2.66410000      -1.56570000       1.37820000
H        1.07710000      -0.90960000       3.28890000
