15
Properties=species:S:1:pos:R:3 gdb_17714=T pbc="F F F"
C        0.02800000       1.51970000      -0.19500000
N        0.02370000       0.06950000      -0.03490000
C       -1.09690000      -0.50080000       0.76730000
C       -0.23580000      -1.74850000       1.17630000
C        0.65720000      -0.45740000       1.20820000
C       -0.53230000      -0.07370000       2.19070000
C       -0.60760000      -1.52720000       2.63360000
O       -0.83890000      -2.16420000       3.61660000
H        1.01810000       1.83690000      -0.53780000
H       -0.69580000       1.79440000      -0.96900000
H       -0.21660000       2.08170000       0.72190000
H       -2.13950000      -0.50330000       0.44920000
H       -0.06200000      -2.63440000       0.57230000
H        1.72520000      -0.40760000       1.42070000
H       -0.69260000       0.85100000       2.73720000
