19
Properties=species:S:1:pos:R:3 gdb_63744=T pbc="F F F"
C        0.11170000       1.55380000      -0.05500000
C       -0.01000000       0.03030000       0.01880000
O       -1.39830000      -0.34260000       0.06830000
C        0.59610000      -0.70580000      -1.20280000
C        1.41140000      -1.86300000      -0.62540000
C        1.51280000      -3.20180000      -1.22770000
O        2.59590000      -2.27640000      -1.32510000
C        1.50030000      -1.61340000       0.83660000
C        0.74510000      -0.57620000       1.19170000
H        1.15860000       1.86490000      -0.12580000
H       -0.42940000       1.93410000      -0.92660000
H       -0.31600000       2.02040000       0.84080000
H       -1.77450000       0.02950000       0.87360000
H       -0.19980000      -1.03030000      -1.87520000
H        1.27100000      -0.04980000      -1.75930000
H        1.69360000      -4.07290000      -0.59790000
H        0.98230000      -3.40650000      -2.15740000
H        2.10730000      -2.22940000       1.49000000
H        0.62310000      -0.19870000       2.20240000
