15
Properties=species:S:1:pos:R:3 gdb_115264=T pbc="F F F"
O        0.09640000       1.37490000       0.07600000
C        0.04620000      -0.02910000       0.03280000
C       -1.39790000      -0.53880000      -0.04840000
C       -1.53960000      -2.08210000      -0.04020000
O       -2.39040000      -2.35690000       1.10600000
C       -2.60860000      -1.15220000       1.67750000
N       -2.13550000      -0.09680000       1.15320000
C       -3.39400000      -1.17670000       2.88090000
N       -4.02510000      -1.19600000       3.84780000
H       -0.48640000       1.65130000       0.79400000
H        0.59840000      -0.34330000      -0.86010000
H        0.53430000      -0.49090000       0.90790000
H       -1.87150000      -0.08250000      -0.92430000
H       -2.03000000      -2.48780000      -0.92650000
H       -0.58920000      -2.60190000       0.11860000
