21
Properties=species:S:1:pos:R:3 gdb_60099=T pbc="F F F"
C        0.01510000       1.47860000      -0.11880000
C        0.01270000      -0.03790000       0.06980000
O        0.72630000      -0.41220000       1.24690000
C       -1.41050000      -0.62060000       0.06730000
C       -1.43750000      -2.11900000      -0.01170000
C       -0.69540000      -3.19530000       0.82820000
C       -1.34460000      -3.86930000      -0.39930000
C       -2.64950000      -3.08230000      -0.14350000
O       -0.86440000      -2.74810000      -1.24070000
H        1.03870000       1.86060000      -0.07980000
H       -0.42600000       1.76120000      -1.07980000
H       -0.56500000       1.97190000       0.67210000
H        0.57130000      -0.50780000      -0.74690000
H        0.30650000       0.02760000       1.99480000
H       -1.94140000      -0.29770000       0.97400000
H       -1.97060000      -0.22270000      -0.78790000
H        0.39060000      -3.12360000       0.81110000
H       -1.09370000      -3.43400000       1.81830000
H       -1.21150000      -4.87730000      -0.79130000
H       -3.22560000      -3.31160000       0.75720000
H       -3.27480000      -2.92140000      -1.02320000
