17
Properties=species:S:1:pos:R:3 gdb_107865=T pbc="F F F"
C       -0.08330000       1.33720000      -0.02980000
O        0.10040000      -0.07000000      -0.05170000
C        0.75150000      -0.53490000      -1.16130000
C        2.19730000      -0.27730000      -1.64630000
C        1.59140000      -1.28870000      -2.64080000
C        0.80720000      -2.06020000      -1.50830000
C       -0.48020000      -1.92090000      -2.32350000
O       -1.47120000      -2.53360000      -2.57460000
C        0.18300000      -0.58710000      -2.65520000
H        0.87690000       1.87000000      -0.04470000
H       -0.68970000       1.67510000      -0.88100000
H       -0.60690000       1.57190000       0.89840000
H        2.42980000       0.71620000      -2.04010000
H        3.00190000      -0.64040000      -1.00040000
H        2.04870000      -1.76250000      -3.50460000
H        1.19980000      -2.84850000      -0.86980000
H       -0.11410000       0.25080000      -3.28220000
