12
Properties=species:S:1:pos:R:3 gdb_131184=T pbc="F F F"
O       -0.05670000       1.31830000       0.09450000
C        0.05090000      -0.01310000      -0.02120000
C        0.26390000      -0.87500000      -1.07390000
O        0.46700000      -0.49400000      -2.37080000
C       -0.10540000      -1.26040000      -3.35740000
O        0.06330000      -1.00550000      -4.50610000
N        0.29250000      -2.14540000      -0.61560000
N        0.09810000      -2.13770000       0.67440000
N       -0.04160000      -0.83800000       1.04160000
H        0.06890000       1.71040000      -0.77870000
H       -0.69860000      -2.09110000      -2.94660000
H       -0.18600000      -0.59630000       2.00930000
