15
Properties=species:S:1:pos:R:3 gdb_31877=T pbc="F F F"
O       -0.02360000       1.43950000       0.01140000
C       -0.01010000       0.02470000      -0.03250000
C       -1.42760000      -0.48730000       0.01410000
N       -1.57730000      -1.82100000      -0.01400000
C       -2.80870000      -2.30250000       0.02520000
C       -3.91670000      -1.44240000       0.09420000
O       -5.15630000      -1.96850000       0.13240000
N       -3.78400000      -0.12690000       0.12260000
C       -2.53300000       0.35250000       0.08220000
H        0.88450000       1.75080000      -0.02570000
H        0.46930000      -0.35150000      -0.95010000
H        0.54680000      -0.40580000       0.81470000
H       -2.94630000      -3.37950000       0.00290000
H       -5.76770000      -1.21980000       0.17750000
H       -2.41130000       1.42860000       0.10520000
