17
Properties=species:S:1:pos:R:3 gdb_67130=T pbc="F F F"
O        0.04810000       1.47830000       0.42500000
C        0.08350000       0.13380000       0.11820000
C       -0.96710000      -0.97700000       0.05350000
C       -0.63320000      -1.26780000      -1.43590000
C        0.67200000      -0.54050000      -1.13680000
C        1.87320000      -1.12110000      -1.05790000
C        2.44850000      -1.10290000       0.33610000
O        1.41120000      -1.68400000       1.17740000
C        0.22300000      -0.93960000       1.10110000
H       -0.33930000       1.95080000      -0.32110000
H       -1.97210000      -0.99360000       0.46410000
H       -0.54840000      -2.30780000      -1.76360000
H       -1.34090000      -0.73300000      -2.07940000
H        2.17200000      -1.90800000      -1.74580000
H        3.32040000      -1.74770000       0.45120000
H        2.69070000      -0.09690000       0.69800000
H       -0.17860000      -0.75090000       2.09500000
