19
Properties=species:S:1:pos:R:3 gdb_73394=T pbc="F F F"
C        0.03850000       1.53830000      -0.11290000
C        0.02020000       0.04370000       0.03950000
O        0.41110000      -0.58600000      -1.16520000
C        0.33420000      -1.98790000      -0.83230000
C       -0.12110000      -1.90920000       0.61220000
C        0.74640000      -0.74460000       1.22030000
C       -0.02740000      -0.32100000       2.44890000
C       -1.30510000      -0.34630000       2.04750000
C       -1.22190000      -0.78350000       0.60200000
H        1.04340000       1.87950000      -0.37980000
H       -0.64420000       1.84600000      -0.91090000
H       -0.26430000       2.02030000       0.81890000
H       -0.38280000      -2.48850000      -1.49400000
H        1.31820000      -2.45490000      -0.95960000
H       -0.27670000      -2.83590000       1.16580000
H        1.83490000      -0.81050000       1.25340000
H        0.39410000      -0.02690000       3.39950000
H       -2.20470000      -0.07830000       2.58310000
H       -2.13060000      -0.88890000       0.00760000
