15
Properties=species:S:1:pos:R:3 gdb_31200=T pbc="F F F"
C       -0.10210000       1.46200000       0.09130000
N       -0.06240000       0.03490000      -0.18640000
C       -1.16370000      -0.74870000      -0.07610000
C       -1.31360000      -2.12250000       0.00470000
C       -2.74030000      -2.35240000       0.03280000
C       -3.32770000      -1.14150000      -0.02300000
O       -2.36390000      -0.14580000      -0.08750000
C       -0.25320000      -3.04610000       0.05310000
N        0.64950000      -3.77530000       0.09470000
H        0.85830000       1.89570000      -0.19210000
H       -0.88310000       1.93270000      -0.50920000
H       -0.29560000       1.68790000       1.14880000
H        0.80540000      -0.44520000      -0.00430000
H       -3.22990000      -3.31090000       0.09100000
H       -4.34490000      -0.79240000      -0.02380000
