11
Properties=species:S:1:pos:R:3 gdb_130495=T pbc="F F F"
O       -0.05220000       1.23150000       0.00890000
N        1.16570000       1.83960000       0.00080000
C        2.02070000       0.83760000      -0.01240000
C        3.44350000       0.76110000      -0.02610000
N        4.01360000      -0.41040000      -0.03750000
C        3.20740000      -1.53730000      -0.03580000
N        1.90400000      -1.61270000      -0.02410000
C        1.30270000      -0.39460000      -0.01220000
N        0.00700000      -0.12940000       0.00130000
H        4.06830000       1.65110000      -0.02720000
H        3.75610000      -2.47470000      -0.04580000
