23
Properties=species:S:1:pos:R:3 gdb_112571=T pbc="F F F"
C       -0.27920000       1.48790000       0.08870000
C       -0.16440000      -0.03820000       0.07910000
C        0.84320000      -0.56280000       1.11020000
O        0.45980000      -0.16820000       2.43130000
C        0.36480000      -1.30390000       3.31550000
C        1.41630000      -1.15250000       4.42600000
C       -1.05090000      -1.34460000       3.90720000
C        0.65480000      -2.47940000       2.41030000
C        0.93520000      -2.06360000       1.18260000
H        0.67900000       1.95770000      -0.16140000
H       -1.02060000       1.83420000      -0.63780000
H       -0.57620000       1.84090000       1.07960000
H       -1.14000000      -0.49390000       0.28690000
H        0.14630000      -0.38820000      -0.91420000
H        1.82900000      -0.11930000       0.88100000
H        1.23340000      -0.23450000       4.99270000
H        1.37940000      -1.99850000       5.12060000
H        2.42020000      -1.10080000       3.99640000
H       -1.79470000      -1.43940000       3.11200000
H       -1.16470000      -2.19010000       4.59390000
H       -1.25200000      -0.42310000       4.46220000
H        0.63630000      -3.50320000       2.76390000
H        1.19140000      -2.67800000       0.32810000
