19
Properties=species:S:1:pos:R:3 gdb_126216=T pbc="F F F"
C       -0.23030000       1.54610000       0.08370000
C       -0.04800000       0.01900000       0.02040000
C        0.71330000      -0.44830000      -1.18570000
C        2.08370000      -0.59830000      -1.33120000
C        3.23280000      -0.36120000      -0.40640000
O        4.32070000      -1.16660000      -0.84800000
N        2.29150000      -1.01140000      -2.60550000
N        1.15640000      -1.16610000      -3.30970000
C        0.20120000      -0.81350000      -2.45400000
H        0.73730000       2.05800000       0.11620000
H       -0.76520000       1.91170000      -0.79820000
H       -0.79810000       1.83890000       0.97300000
H        0.45710000      -0.32000000       0.93400000
H       -1.03460000      -0.45900000       0.02790000
H        3.51550000       0.70420000      -0.41060000
H        2.93360000      -0.60930000       0.62360000
H        5.11240000      -0.88550000      -0.38080000
H        3.17820000      -1.28330000      -2.99590000
H       -0.83390000      -0.84110000      -2.76550000
