23
Properties=species:S:1:pos:R:3 gdb_96588=T pbc="F F F"
C        0.14310000       1.64500000       0.07930000
C        0.00330000       0.12640000       0.00810000
C        0.59740000      -0.43640000      -1.29850000
C        1.00470000      -1.91010000      -1.25420000
O       -0.04590000      -2.85850000      -1.20600000
C       -0.85830000      -2.94080000      -0.04510000
C       -0.14830000      -2.79550000       1.31180000
C       -0.07370000      -1.37600000       1.89360000
O        0.66440000      -0.42790000       1.14810000
H        1.20200000       1.91990000       0.11920000
H       -0.30340000       2.11920000      -0.80090000
H       -0.34700000       2.03920000       0.97380000
H       -1.06380000      -0.12760000       0.05890000
H       -0.10690000      -0.26480000      -2.12140000
H        1.50850000       0.12930000      -1.53710000
H        1.54180000      -2.15230000      -2.17690000
H        1.70560000      -2.05170000      -0.42160000
H       -1.69070000      -2.21990000      -0.10080000
H       -1.30820000      -3.93730000      -0.10760000
H       -0.70970000      -3.39330000       2.04210000
H        0.84990000      -3.24370000       1.25600000
H       -1.10010000      -1.00590000       2.05640000
H        0.41230000      -1.42080000       2.87470000
