15
Properties=species:S:1:pos:R:3 gdb_10694=T pbc="F F F"
C       -0.03690000       1.54950000       0.33560000
C       -0.01780000       0.06830000      -0.04630000
O        0.81460000      -0.68880000       0.80640000
C       -1.43370000      -0.53190000      -0.04080000
C       -1.65150000      -1.94930000       0.30120000
O       -1.90320000      -0.91270000       1.25880000
C       -2.40970000       0.13170000      -0.88610000
N       -3.15000000       0.67480000      -1.58820000
H        0.98600000       1.93180000       0.35800000
H       -0.61740000       2.13910000      -0.37960000
H       -0.48160000       1.68350000       1.32790000
H        0.39560000      -0.05180000      -1.05400000
H        0.42170000      -0.64590000       1.68810000
H       -2.53790000      -2.45620000      -0.07200000
H       -0.77520000      -2.55880000       0.49980000
