22
Properties=species:S:1:pos:R:3 gdb_97939=T pbc="F F F"
C       -0.60470000       1.04660000      -1.65290000
C        0.01250000       0.03860000      -0.66650000
C        1.11000000      -0.73590000      -1.23890000
C        2.02580000      -1.35640000      -1.72010000
C        3.13190000      -2.15490000      -2.25910000
N        2.86630000      -3.06940000      -3.38130000
C        1.49910000      -3.35980000      -3.79850000
C        2.40840000      -2.57430000      -4.68210000
C        2.16880000      -1.11080000      -4.98100000
H        0.14630000       1.76230000      -1.99830000
H       -1.01110000       0.53440000      -2.52950000
H       -1.41590000       1.60230000      -1.17320000
H        0.37610000       0.57210000       0.22130000
H       -0.76670000      -0.64490000      -0.30530000
H        3.95380000      -1.49350000      -2.56040000
H        3.52810000      -2.77430000      -1.44400000
H        1.27950000      -4.40530000      -4.00210000
H        0.69640000      -2.80870000      -3.31250000
H        2.88460000      -3.10940000      -5.50420000
H        1.63640000      -0.60630000      -4.17280000
H        3.11620000      -0.58470000      -5.14700000
H        1.57680000      -1.01090000      -5.89740000
