17
Properties=species:S:1:pos:R:3 gdb_120182=T pbc="F F F"
C       -0.15600000       1.34880000      -0.05230000
O       -0.11790000      -0.05820000      -0.11380000
C        0.81000000      -0.53970000      -1.06400000
C        0.75500000      -2.05340000      -1.01930000
C       -0.48760000      -2.72860000      -1.66640000
O        0.06070000      -2.38520000      -3.00850000
C        1.27050000      -2.82800000      -2.26370000
C        0.36580000      -4.01580000      -1.82440000
O        0.31530000      -5.19840000      -1.78220000
H        0.81690000       1.77090000       0.24510000
H       -0.44060000       1.79170000      -1.01950000
H       -0.90310000       1.62240000       0.69630000
H        0.56670000      -0.17800000      -2.07260000
H        1.82920000      -0.19650000      -0.81710000
H        1.05520000      -2.44410000      -0.04220000
H       -1.54640000      -2.55710000      -1.49060000
H        2.22780000      -2.78180000      -2.77880000
