14
Properties=species:S:1:pos:R:3 gdb_10451=T pbc="F F F"
O       -0.95460000       0.94260000      -0.13660000
C        0.13980000       0.88430000       0.35910000
C        1.27210000       1.80510000       0.00680000
C        1.15120000       2.58820000      -1.29010000
C        1.26110000       1.73980000      -2.47190000
C        1.36070000       1.03750000      -3.44070000
C        2.05410000       2.32970000       1.14990000
O        2.55950000       1.27900000       0.34320000
H        0.40880000       0.14130000       1.14220000
H        0.17880000       3.09460000      -1.28750000
H        1.92580000       3.36230000      -1.31300000
H        1.44240000       0.41680000      -4.29830000
H        2.53980000       3.29770000       1.03610000
H        1.78610000       2.05590000       2.16980000
