19
Properties=species:S:1:pos:R:3 gdb_30340=T pbc="F F F"
C       -0.25580000       1.50880000       0.02930000
C        0.07960000       0.02230000       0.00520000
C        1.04100000      -0.39020000      -1.15120000
N        1.94000000      -1.43830000      -0.62000000
C        1.85360000      -1.30740000       0.78470000
C        2.44250000      -1.80900000       1.91940000
C        1.75120000      -1.20210000       3.01720000
C        0.78570000      -0.35760000       2.51590000
N        0.87150000      -0.42300000       1.14280000
H        0.65730000       2.10890000       0.08860000
H       -0.79920000       1.78880000      -0.87890000
H       -0.88900000       1.75880000       0.88580000
H       -0.85390000      -0.55910000      -0.04070000
H        0.50760000      -0.73910000      -2.03770000
H        1.64160000       0.48190000      -1.43800000
H        1.66360000      -2.36350000      -0.93070000
H        3.26090000      -2.50910000       1.96960000
H        1.96790000      -1.35210000       4.06440000
H        0.09300000       0.30330000       3.01060000
