14
Properties=species:S:1:pos:R:3 gdb_44922=T pbc="F F F"
N       -0.05030000       1.26210000       0.00090000
C       -0.01490000       0.00690000      -0.00590000
O        1.10360000      -0.79970000      -0.01000000
C        0.57650000      -2.15030000      -0.01350000
O       -0.61860000      -2.06050000      -0.73720000
C       -1.18150000      -0.96420000       0.03080000
C       -1.23580000      -1.56260000       1.45370000
C        0.06430000      -2.39140000       1.42850000
O        0.55430000      -3.06350000       2.28830000
H        0.88950000       1.66200000       0.00530000
H        1.29530000      -2.84370000      -0.44070000
H       -2.10790000      -0.61130000      -0.41010000
H       -1.23880000      -0.82850000       2.26150000
H       -2.09800000      -2.22490000       1.56750000
