17
Properties=species:S:1:pos:R:3 gdb_92947=T pbc="F F F"
O        0.27480000       0.91320000      -0.63850000
C        0.10130000      -0.21270000       0.17650000
C        0.43750000      -0.00610000       1.67750000
C       -0.60080000      -0.83250000       2.38630000
C       -1.58400000      -1.22960000       1.58150000
C       -1.39670000      -0.72280000       0.16920000
O       -2.26710000       0.41420000      -0.03520000
C       -1.64670000      -1.72890000      -0.85740000
C       -1.86300000      -2.53850000      -1.72010000
H       -0.53060000       1.43750000      -0.51760000
H        0.73560000      -1.00490000      -0.23010000
H        1.46350000      -0.30950000       1.91190000
H        0.35660000       1.05570000       1.94310000
H       -0.54810000      -1.05540000       3.44670000
H       -2.45740000      -1.80540000       1.86070000
H       -2.62580000       0.34730000      -0.92690000
H       -2.04600000      -3.26100000      -2.47710000
