19
Properties=species:S:1:pos:R:3 gdb_63416=T pbc="F F F"
C        0.30810000       1.46410000      -0.09060000
C       -0.02930000      -0.02650000       0.02760000
O       -1.45160000      -0.19310000       0.11490000
C        0.44440000      -0.86780000      -1.19190000
C        1.47260000      -1.91300000      -0.67560000
C        2.87280000      -1.64090000      -1.20410000
O        3.62410000      -2.47260000      -1.63910000
C        1.44770000      -1.71080000       0.82570000
C        0.67290000      -0.69440000       1.19220000
H        1.38290000       1.61880000      -0.22560000
H       -0.22110000       1.90220000      -0.94240000
H        0.00770000       2.00550000       0.81500000
H       -1.77660000       0.37500000       0.82200000
H       -0.42440000      -1.36790000      -1.62220000
H        0.87210000      -0.22990000      -1.97170000
H        1.22190000      -2.94190000      -0.95340000
H        3.17160000      -0.56680000      -1.13890000
H        2.02870000      -2.33880000       1.49220000
H        0.51410000      -0.36430000       2.21440000
