19
Properties=species:S:1:pos:R:3 gdb_78099=T pbc="F F F"
C       -0.03780000       1.55180000       0.02820000
C        0.06620000       0.04410000       0.12060000
C        1.29740000      -0.78530000      -0.20320000
C        2.58350000      -0.07950000       0.27120000
C        2.00140000      -0.07980000       1.73400000
C        0.72530000      -0.74840000       1.21350000
O        0.08650000      -1.77500000       1.88630000
C        3.80860000      -0.94530000       0.15290000
O        4.84640000      -0.60820000      -0.35630000
H        0.85690000       2.05570000       0.40240000
H       -0.18460000       1.86870000      -1.00980000
H       -0.88970000       1.92000000       0.61040000
H       -0.82500000      -0.47770000      -0.22600000
H        1.26320000      -1.57520000      -0.94410000
H        2.79710000       0.89630000      -0.17080000
H        2.55820000      -0.75710000       2.38770000
H        1.91250000       0.89310000       2.22650000
H       -0.66410000      -1.40820000       2.36590000
H        3.68600000      -1.96460000       0.59090000
