18
Properties=species:S:1:pos:R:3 gdb_37708=T pbc="F F F"
C       -0.02880000       1.56630000       0.01400000
C        1.47120000       1.82710000      -0.01660000
C        2.08700000       0.57020000       0.65750000
O        1.01680000      -0.31390000       0.95350000
C       -0.01180000       0.02530000       0.00720000
C        0.41200000      -0.44780000      -1.38970000
C        1.76890000       0.14790000      -1.72610000
C        2.79620000       0.30620000      -0.67750000
N        2.16220000       1.52760000      -1.33380000
H       -0.46890000       1.94920000       0.93930000
H       -0.55820000       1.99570000      -0.84070000
H        1.79410000       2.80020000       0.35150000
H        2.71670000       0.68470000       1.53910000
H       -0.93620000      -0.44770000       0.34330000
H        0.48380000      -1.54090000      -1.41620000
H       -0.33720000      -0.14650000      -2.13150000
H        2.14370000      -0.08160000      -2.72050000
H        3.84460000       0.06090000      -0.81220000
