13
Properties=species:S:1:pos:R:3 gdb_132114=T pbc="F F F"
N        0.04290000       1.41210000       0.16720000
C       -0.00440000       0.04040000       0.05750000
C       -1.16710000      -0.69450000       0.04040000
F       -2.33470000      -0.02580000       0.06660000
N       -1.19950000      -2.01690000      -0.00060000
C       -0.08340000      -2.70110000      -0.03460000
C        1.23520000      -2.09050000      -0.02490000
O        2.31990000      -2.64390000      -0.04920000
N        1.15350000      -0.67590000       0.02410000
H        0.78820000       1.87760000      -0.33230000
H       -0.85610000       1.85120000       0.02770000
H       -0.13090000      -3.78400000      -0.07030000
H        2.04690000      -0.20400000       0.07820000
