16
Properties=species:S:1:pos:R:3 gdb_30465=T pbc="F F F"
C       -0.02380000       1.43740000       0.00770000
N        0.03200000      -0.01260000       0.00280000
C       -1.06030000      -0.66080000       0.00920000
O       -2.28360000       0.00620000       0.02080000
C       -3.46650000      -0.67140000       0.02760000
C       -3.53400000      -2.01540000       0.02380000
O       -4.68750000      -2.74630000       0.03020000
C       -2.30270000      -2.76380000       0.01200000
C       -1.12560000      -2.10940000       0.00510000
H        0.99380000       1.83510000      -0.00040000
H       -0.55740000       1.83450000      -0.86760000
H       -0.54100000       1.82890000       0.89540000
H       -4.31800000      -0.00140000       0.03620000
H       -5.44610000      -2.15280000       0.03810000
H       -2.36040000      -3.84650000       0.00900000
H       -0.17290000      -2.62260000      -0.00380000
