19
Properties=species:S:1:pos:R:3 gdb_8493=T pbc="F F F"
C       -0.07720000       1.50810000       0.02480000
C        0.01890000      -0.02200000       0.04620000
C       -1.35100000      -0.56650000      -0.36120000
N        1.24370000      -0.62750000      -0.72760000
C        2.10590000      -0.12670000       0.44140000
C        0.85770000      -0.72370000       1.14730000
O        0.50180000      -0.74370000       2.48700000
C        1.05580000      -1.88410000       0.14030000
H       -0.01580000       1.86460000      -1.00930000
H       -1.04660000       1.81960000       0.42380000
H        0.68710000       2.02100000       0.60810000
H       -1.66790000      -0.09330000      -1.29650000
H       -1.39930000      -1.64450000      -0.50650000
H       -2.08540000      -0.30340000       0.40710000
H        3.04540000      -0.67730000       0.53530000
H        2.28520000       0.94550000       0.45120000
H        1.16560000      -1.23940000       2.97910000
H        0.21860000      -2.52060000      -0.13400000
H        1.97380000      -2.47110000       0.22520000
