17
Properties=species:S:1:pos:R:3 gdb_78056=T pbc="F F F"
C        0.22570000       1.57780000      -0.21430000
C        0.14730000       0.05780000      -0.21690000
C        1.30300000      -0.86540000      -0.78170000
C        2.08600000      -0.63880000       0.55510000
C        2.92370000       0.59450000       0.78720000
O        3.53420000       1.17630000      -0.07240000
C        0.59180000      -0.78820000       1.03690000
C        0.58280000      -1.95700000       0.03060000
O        0.20890000      -3.08300000      -0.06400000
H        0.16040000       1.95900000      -1.23850000
H       -0.62600000       1.98100000       0.34370000
H        1.13390000       1.98650000       0.22620000
H       -0.83670000      -0.23660000      -0.59680000
H        1.70910000      -0.89680000      -1.78910000
H        2.72520000      -1.47710000       0.87080000
H        3.01680000       0.88730000       1.85870000
H        0.20740000      -0.74450000       2.05390000
