15
Properties=species:S:1:pos:R:3 gdb_11347=T pbc="F F F"
O        0.00400000       1.40450000       0.00790000
C       -0.02560000      -0.00710000       0.00240000
C       -1.44190000      -0.46950000       0.01230000
C       -2.56170000       0.25650000       0.02310000
C       -3.71820000      -0.64420000       0.02960000
N       -4.94300000      -0.32430000       0.04010000
O       -3.24560000      -1.94160000       0.02220000
C       -1.81990000      -1.92790000       0.01120000
H        0.92260000       1.68810000       0.00030000
H        0.48200000      -0.42330000      -0.88640000
H        0.49680000      -0.43060000       0.87900000
H       -2.65060000       1.33110000       0.02690000
H       -5.52980000      -1.16020000       0.04230000
H       -1.45840000      -2.45990000      -0.88010000
H       -1.44460000      -2.46470000       0.89390000
