15
Properties=species:S:1:pos:R:3 gdb_42713=T pbc="F F F"
O        0.14160000       0.06430000       0.22870000
C        0.04310000       1.23460000       0.09200000
C       -1.06730000       2.32520000      -0.08370000
C       -0.73130000       3.03340000       1.24770000
C        0.62130000       3.13430000       1.32270000
C        1.03110000       2.50820000       0.02380000
C        1.95210000       2.37590000      -1.18400000
O        0.75270000       2.42190000      -2.04140000
C        0.00010000       3.04460000      -0.96400000
H       -2.11230000       2.14090000      -0.32740000
H       -1.46040000       3.24620000       2.01610000
H        1.22500000       3.45810000       2.15810000
H        2.60840000       3.23140000      -1.38260000
H        2.49520000       1.43550000      -1.30350000
H       -0.13300000       4.12060000      -1.10870000
