20
Properties=species:S:1:pos:R:3 gdb_22828=T pbc="F F F"
C       -0.04840000       1.52120000      -0.03730000
C        0.09060000       0.01080000       0.05200000
O        0.76280000      -0.42580000      -1.12990000
C        0.87700000      -1.83480000      -1.21860000
C        1.73190000      -2.39260000      -0.08220000
C        1.14950000      -1.97430000       1.28080000
C        0.82410000      -0.50070000       1.28170000
N        1.09080000       0.33920000       2.20340000
O        1.74490000      -0.24430000       3.30110000
H        0.93610000       1.99400000      -0.04530000
H       -0.57240000       1.77900000      -0.96090000
H       -0.60710000       1.90860000       0.81640000
H       -0.91650000      -0.44990000       0.06330000
H       -0.12550000      -2.29880000      -1.20220000
H        1.32690000      -2.04350000      -2.19360000
H        1.79190000      -3.48440000      -0.15260000
H        2.74950000      -1.99880000      -0.18270000
H        0.21640000      -2.52870000       1.45870000
H        1.82690000      -2.21340000       2.10040000
H        1.88790000       0.51640000       3.87370000
