15
Properties=species:S:1:pos:R:3 gdb_44750=T pbc="F F F"
O       -0.02880000       0.10240000       0.51000000
C       -0.02520000       1.22200000       0.09560000
O       -1.17670000       1.85880000      -0.24250000
C       -1.07190000       3.21060000      -0.73340000
C        0.01900000       3.30530000      -1.82090000
C        1.03040000       3.44900000      -0.63440000
C       -0.15990000       4.04830000       0.18750000
C        1.28250000       2.06170000      -0.09870000
O        2.35040000       1.58790000       0.17220000
H       -2.09420000       3.52310000      -0.94010000
H        0.12290000       2.45950000      -2.50450000
H       -0.05260000       4.23520000      -2.38860000
H        1.95630000       4.00910000      -0.75910000
H       -0.26530000       5.11870000      -0.00070000
H       -0.21250000       3.85260000       1.26100000
