22
Properties=species:S:1:pos:R:3 gdb_63797=T pbc="F F F"
C       -0.12910000       1.58390000      -0.00000000
C        0.01000000       0.05810000      -0.00660000
C       -1.38240000      -0.59650000      -0.05300000
C        0.89340000      -0.47730000      -1.17540000
C        1.63970000      -1.64640000      -0.54540000
C        2.56370000      -1.40140000       0.59190000
C        2.27170000      -0.07780000       1.27950000
C        0.77600000      -0.49460000       1.20670000
N        1.16640000      -1.92750000       0.83590000
H        0.84300000       2.08530000       0.03020000
H       -0.65100000       1.92780000      -0.89960000
H       -0.70990000       1.92300000       0.86500000
H       -1.91780000      -0.30610000      -0.96350000
H       -1.30460000      -1.68720000      -0.03340000
H       -1.98940000      -0.28670000       0.80500000
H        0.28440000      -0.80360000      -2.02350000
H        1.58060000       0.29040000      -1.54760000
H        1.82080000      -2.54000000      -1.13450000
H        3.43830000      -2.02270000       0.76270000
H        2.63680000      -0.07030000       2.30860000
H        2.59060000       0.84610000       0.78660000
H        0.21800000      -0.44510000       2.14310000
