16
Properties=species:S:1:pos:R:3 gdb_3244=T pbc="F F F"
C       -0.00550000       1.49620000       0.45840000
C        0.04280000       0.02630000       0.12560000
C       -1.15050000      -0.70430000      -0.31420000
O       -0.14350000      -0.32080000      -1.25140000
N        1.29280000       2.11350000       0.21830000
C        1.54450000       2.54950000      -1.15380000
C        1.28340000       3.54280000      -0.07610000
H       -0.81620000       1.96420000      -0.12860000
H       -0.24960000       1.62070000       1.52150000
H        0.84080000      -0.52960000       0.61820000
H       -1.23170000      -1.77310000      -0.12210000
H       -2.10020000      -0.17800000      -0.40700000
H        2.55380000       2.38680000      -1.52000000
H        0.76000000       2.38240000      -1.88820000
H        0.32210000       4.05460000      -0.09200000
H        2.09660000       4.11860000       0.35640000
