17
Properties=species:S:1:pos:R:3 gdb_91256=T pbc="F F F"
C        0.21280000       1.25050000      -0.19930000
N        0.02710000       0.09850000       0.65920000
C       -1.15140000      -0.82910000       0.54390000
C       -0.19050000      -1.97400000       1.05600000
N        0.19880000      -3.17120000       0.36860000
C        1.55120000      -3.04530000      -0.06730000
O        2.20830000      -3.96740000      -0.48980000
C        1.89850000      -1.59490000       0.00780000
C        0.86340000      -1.00620000       0.62730000
H        1.15390000       1.74500000       0.05650000
H        0.24030000       0.97550000      -1.26580000
H       -0.60020000       1.96290000      -0.03720000
H       -2.00800000      -0.55330000       1.16430000
H       -1.45050000      -0.98280000      -0.49890000
H       -0.29510000      -2.10140000       2.13800000
H       -0.07010000      -4.08040000       0.71520000
H        2.72860000      -1.17130000      -0.53490000
