21
Properties=species:S:1:pos:R:3 gdb_88104=T pbc="F F F"
C       -0.13230000       1.49840000      -0.08950000
C        0.02710000       0.00040000       0.04790000
C        1.36570000      -0.68380000      -0.17970000
C        0.74040000      -0.64000000       1.19770000
C        1.37760000       0.15100000       2.32500000
C        2.15880000      -0.77180000       3.22610000
C        2.02940000      -2.09360000       3.15470000
C        1.06420000      -2.74260000       2.20290000
O        0.13310000      -1.82490000       1.65190000
H        0.76070000       2.03650000       0.24260000
H       -0.30850000       1.77360000      -1.13500000
H       -0.98050000       1.86630000       0.49860000
H       -0.82970000      -0.57780000      -0.28780000
H        1.36500000      -1.63460000      -0.70150000
H        2.23330000      -0.05970000      -0.37210000
H        2.03920000       0.92650000       1.92300000
H        0.60550000       0.67870000       2.90430000
H        2.84080000      -0.31920000       3.94090000
H        2.61730000      -2.75610000       3.78440000
H        1.61710000      -3.26280000       1.39980000
H        0.46550000      -3.50270000       2.71860000
