19
Properties=species:S:1:pos:R:3 gdb_103698=T pbc="F F F"
C       -0.16560000       1.63130000       0.07110000
C       -0.20350000       0.11970000       0.13680000
C       -1.44160000      -0.49400000      -0.49960000
O       -1.44260000      -0.26090000      -1.89960000
O        1.00420000      -0.56450000      -0.25280000
C        0.59100000      -0.65920000       1.12850000
C        1.50660000       0.00280000       2.14220000
C        0.13690000      -1.96890000       1.55160000
C       -0.19640000      -3.04750000       1.96580000
H        0.82810000       2.02870000       0.27700000
H       -0.46030000       1.94210000      -0.93530000
H       -0.87660000       2.06580000       0.78190000
H       -1.49250000      -1.56410000      -0.26910000
H       -2.34490000      -0.01510000      -0.10690000
H       -0.64460000      -0.67920000      -2.24380000
H        1.86560000       0.96830000       1.78660000
H        0.98000000       0.14390000       3.09080000
H        2.37090000      -0.64080000       2.32940000
H       -0.50280000      -4.00330000       2.31350000
