15
Properties=species:S:1:pos:R:3 gdb_18317=T pbc="F F F"
O       -0.15230000      -0.03340000      -0.34030000
C       -0.03450000       1.13980000      -0.07450000
N       -1.08710000       2.02540000       0.16750000
C       -0.64130000       3.31960000       0.49450000
C        0.67470000       3.41360000       0.25990000
C        1.89780000       3.83280000       1.04680000
C        2.17910000       2.29000000       1.15690000
C        1.20700000       2.03730000      -0.06000000
H       -2.04820000       1.72710000       0.12930000
H       -1.31100000       4.00280000       0.99960000
H        2.66130000       4.34060000       0.44910000
H        1.74270000       4.38720000       1.97480000
H        3.20960000       1.96010000       1.01060000
H        1.78600000       1.87440000       2.08610000
H        1.76310000       1.90450000      -0.99170000
