26
Properties=species:S:1:pos:R:3 gdb_122161=T pbc="F F F"
C        0.16040000       1.49190000       0.20810000
C        0.04400000       0.00260000      -0.12680000
C       -1.37200000      -0.55090000       0.06880000
C       -1.48210000      -2.04170000      -0.28670000
C       -2.86230000      -2.65640000      -0.08020000
C       -3.97670000      -2.04620000      -0.91200000
C       -2.93960000      -4.11410000       0.24680000
N       -3.31350000      -3.11540000       1.24270000
C       -2.47420000      -2.98740000       2.42260000
H        1.18150000       1.85730000       0.05970000
H       -0.50320000       2.09260000      -0.42400000
H       -0.11440000       1.68630000       1.25090000
H        0.35660000      -0.16540000      -1.16620000
H        0.74580000      -0.56940000       0.49480000
H       -1.68200000      -0.39590000       1.11070000
H       -2.07040000       0.03190000      -0.54450000
H       -1.20840000      -2.17740000      -1.34230000
H       -0.73400000      -2.60210000       0.28420000
H       -3.73790000      -2.09410000      -1.98090000
H       -4.91290000      -2.58200000      -0.73970000
H       -4.14400000      -0.99610000      -0.65120000
H       -3.74660000      -4.73240000      -0.14130000
H       -1.99580000      -4.64240000       0.38600000
H       -1.39970000      -3.15970000       2.25290000
H       -2.59740000      -1.98830000       2.85370000
H       -2.81110000      -3.71640000       3.16750000
