17
Properties=species:S:1:pos:R:3 gdb_12388=T pbc="F F F"
C        0.10820000       1.56730000      -0.05090000
C        0.08330000       0.04060000      -0.01140000
N        0.69510000      -0.52360000      -1.21270000
C        0.78530000      -1.97200000      -1.12080000
C        1.77870000      -2.27950000      -0.01760000
O        1.43280000      -1.64570000       1.22590000
C        0.75150000      -0.47820000       1.26960000
O        0.61870000       0.08040000       2.32490000
H        1.13380000       1.92730000      -0.16760000
H       -0.48340000       1.93290000      -0.89660000
H       -0.30670000       1.97200000       0.87270000
H       -0.97030000      -0.28900000       0.10100000
H        0.16190000      -0.24010000      -2.02750000
H       -0.18260000      -2.46060000      -0.90080000
H        1.16130000      -2.38270000      -2.06320000
H        1.82560000      -3.34950000       0.20070000
H        2.77560000      -1.93040000      -0.30850000
