19
Properties=species:S:1:pos:R:3 gdb_59210=T pbc="F F F"
C        0.03460000       1.52550000      -0.08190000
C        0.02320000       0.00380000       0.07630000
O        0.56200000      -0.38720000       1.34190000
C       -1.38720000      -0.56540000       0.04890000
C       -2.05360000      -0.75190000      -1.35720000
O       -1.21410000      -1.93980000      -1.53740000
C       -1.49030000      -2.12060000      -0.10540000
C       -3.01510000      -2.32450000      -0.10920000
C       -3.40460000      -1.38070000      -0.96900000
H        1.05980000       1.91140000      -0.04180000
H       -0.39190000       1.82900000      -1.04370000
H       -0.53910000       1.99920000       0.72120000
H        0.59740000      -0.45580000      -0.73950000
H        1.46350000      -0.05460000       1.39480000
H       -2.00340000      -0.11350000       0.83080000
H       -1.99610000      -0.02600000      -2.16800000
H       -0.82990000      -2.81880000       0.40450000
H       -3.58090000      -3.04560000       0.46140000
H       -4.38500000      -1.09450000      -1.31940000
