17
Properties=species:S:1:pos:R:3 gdb_123912=T pbc="F F F"
C       -0.03290000       1.49630000       0.01420000
C        1.38180000       2.09420000      -0.00740000
N        2.22320000       1.58600000       1.08000000
C        1.94700000       0.32550000       1.57580000
C        2.48810000      -0.46210000       2.57550000
N        1.81380000      -1.64450000       2.59720000
N        0.89810000      -1.65200000       1.67650000
N        0.96710000      -0.44420000       1.04400000
C        0.04720000      -0.03460000       0.00080000
H       -0.56410000       1.82820000       0.91300000
H       -0.59630000       1.84340000      -0.85640000
H        1.85480000       1.85810000      -0.97120000
H        1.34230000       3.18340000       0.06870000
H        2.48930000       2.25980000       1.77980000
H        3.29320000      -0.24610000       3.25800000
H       -0.91930000      -0.50120000       0.20130000
H        0.40010000      -0.39440000      -0.97370000
