19
Properties=species:S:1:pos:R:3 gdb_47445=T pbc="F F F"
O       -0.25970000      -0.03350000       0.65760000
C       -0.14660000       1.11450000       0.28410000
N       -1.19600000       1.95860000      -0.08510000
C       -0.74920000       3.34390000      -0.12310000
C        0.75730000       3.17080000      -0.40570000
N        1.02200000       1.83850000       0.11370000
C        2.34560000       1.31510000       0.18790000
C        2.63090000      -0.09630000      -0.23740000
C        3.11870000       1.04410000      -1.09010000
H       -2.08830000       1.72940000       0.32430000
H       -1.25250000       3.91580000      -0.90740000
H       -0.90830000       3.85950000       0.83510000
H        0.97520000       3.22970000      -1.48190000
H        1.36370000       3.92890000       0.10050000
H        2.92690000       1.70100000       1.02400000
H        3.35240000      -0.65070000       0.35170000
H        1.79200000      -0.68230000      -0.58610000
H        2.60480000       1.22220000      -2.02850000
H        4.17680000       1.28070000      -1.10320000
