15
Properties=species:S:1:pos:R:3 gdb_27730=T pbc="F F F"
C        0.02600000       1.49150000       0.12650000
C        0.05140000       0.00510000       0.00220000
C       -0.04020000      -0.77260000      -1.14200000
N        0.03780000      -2.09240000      -0.68960000
C        0.16570000      -2.02890000       0.64440000
O        0.26500000      -3.14050000       1.37500000
N        0.17950000      -0.79410000       1.11060000
C       -0.18450000      -0.49020000      -2.54390000
O       -0.24650000      -1.35580000      -3.40180000
H        0.94760000       1.85230000       0.59520000
H       -0.08140000       1.97830000      -0.84490000
H       -0.80440000       1.80820000       0.76650000
H       -0.00140000      -2.90380000      -1.28520000
H        0.34720000      -2.85870000       2.29570000
H       -0.23720000       0.58700000      -2.80290000
