18
Properties=species:S:1:pos:R:3 gdb_23004=T pbc="F F F"
C        0.44290000       1.56790000      -0.44240000
C        0.09050000       0.14360000      -0.08200000
C        1.14790000      -0.92340000      -0.01820000
C        0.48360000      -0.47610000       1.26060000
C        1.21850000       0.29810000       2.29870000
N        2.45770000       0.59200000       2.10320000
O        2.99510000       1.35340000       3.13430000
C        0.48610000       0.68530000       3.46110000
C       -0.17600000       0.97580000       4.42360000
H        1.41570000       1.85230000      -0.03350000
H        0.48860000       1.68720000      -1.53040000
H       -0.30370000       2.27240000      -0.05970000
H       -0.88500000      -0.17900000      -0.43710000
H        0.91860000      -1.91970000      -0.37980000
H        2.17690000      -0.61380000      -0.15930000
H       -0.25780000      -1.14210000       1.68960000
H        3.91080000       1.46050000       2.85410000
H       -0.74540000       1.24450000       5.27910000
