18
Properties=species:S:1:pos:R:3 gdb_22231=T pbc="F F F"
C       -0.19700000       1.33410000       0.87600000
N       -0.55490000      -0.08330000       0.78660000
H        0.19520000      -0.64870000       1.17660000
H       -1.98530000      -0.78420000       1.34760000
C       -0.81740000      -0.54820000      -0.59700000
C       -1.34900000      -1.95610000      -0.60010000
N       -0.83760000      -2.79590000      -1.52480000
O       -1.31900000      -3.96300000      -1.63500000
C       -2.34310000      -2.32510000       0.34550000
N       -2.93270000      -3.50780000       0.27700000
O       -2.68910000      -1.51520000       1.33120000
H        0.02340000       1.59210000       1.91500000
H        0.67270000       1.59630000       0.25570000
H       -1.04460000       1.94200000       0.54570000
H       -1.54850000       0.15950000      -1.01470000
H        0.07190000      -0.51150000      -1.23990000
H       -2.53790000      -4.09630000      -0.48460000
H       -3.54110000      -3.80980000       1.02090000
