20
Properties=species:S:1:pos:R:3 gdb_9757=T pbc="F F F"
C        0.00940000       1.51090000      -0.22260000
C       -0.08780000      -0.00300000      -0.01290000
C       -1.52620000      -0.53120000       0.19080000
C       -2.19670000       0.06490000       1.43710000
O       -2.32110000      -0.18150000      -0.96380000
C       -2.76760000      -1.34580000      -1.64900000
C       -2.25220000      -2.50060000      -0.83720000
C       -1.55830000      -2.04280000       0.19640000
H        1.03400000       1.79840000      -0.47790000
H       -0.64740000       1.82370000      -1.03870000
H       -0.27340000       2.06980000       0.67460000
H        0.32890000      -0.51880000      -0.88560000
H        0.52090000      -0.30650000       0.84900000
H       -2.30380000       1.14790000       1.33830000
H       -3.19290000      -0.36560000       1.56870000
H       -1.60690000      -0.14290000       2.33640000
H       -3.86680000      -1.33880000      -1.72140000
H       -2.37980000      -1.35420000      -2.68070000
H       -2.43940000      -3.53630000      -1.09200000
H       -1.06170000      -2.63000000       0.95900000
