12
Properties=species:S:1:pos:R:3 gdb_672=T pbc="F F F"
C       -0.04530000       1.53160000       0.01230000
C        1.40770000       1.96630000       0.03990000
C        2.24800000       0.93150000      -0.04610000
C        1.48210000      -0.35100000      -0.08410000
O        0.68730000      -0.57330000       1.10530000
C        0.05380000       0.01020000      -0.03380000
H       -0.59810000       1.87510000       0.89510000
H       -0.57250000       1.92350000      -0.86710000
H        1.69910000       3.00470000       0.15190000
H        3.32930000       0.98430000      -0.05020000
H        1.86770000      -1.25090000      -0.55350000
H       -0.73190000      -0.58700000      -0.48890000
