18
Properties=species:S:1:pos:R:3 gdb_121684=T pbc="F F F"
O       -1.32990000       1.78690000       0.01210000
C       -0.58630000       0.59820000      -0.23040000
C       -1.51600000      -0.57240000       0.05030000
N       -2.68480000      -0.52240000      -0.80510000
C       -3.09350000      -1.57410000      -1.55170000
O       -2.54960000      -2.66370000      -1.56820000
C       -4.34540000      -1.33460000      -2.42450000
C       -4.93140000      -0.00380000      -2.38590000
C       -5.39970000       1.10300000      -2.33820000
H       -0.81770000       2.53850000      -0.29870000
H       -0.23890000       0.55140000      -1.27290000
H        0.29310000       0.53220000       0.42830000
H       -1.01340000      -1.52360000      -0.13660000
H       -1.81580000      -0.54270000       1.10610000
H       -3.17770000       0.35540000      -0.87520000
H       -4.05850000      -1.60130000      -3.44780000
H       -5.07980000      -2.08710000      -2.11540000
H       -5.82310000       2.07630000      -2.30290000
