19
Properties=species:S:1:pos:R:3 gdb_73511=T pbc="F F F"
C       -0.06240000       1.58280000      -0.19380000
C       -0.03620000       0.06330000      -0.02600000
C        1.06090000      -0.60810000      -0.88570000
C        2.25980000      -0.73710000       0.10890000
C        1.54460000      -0.99850000       1.43500000
C        0.30540000      -0.52260000       1.35350000
C       -1.10090000      -0.93270000       1.62930000
O       -2.00460000       0.14180000       1.32420000
C       -1.44600000      -0.57170000       0.22120000
H        0.93920000       2.00280000      -0.05450000
H       -0.39730000       1.85270000      -1.20210000
H       -0.73310000       2.04710000       0.53080000
H        0.75110000      -1.61480000      -1.18950000
H        1.30390000      -0.04460000      -1.79250000
H        2.92600000      -1.56340000      -0.15970000
H        2.88060000       0.16930000       0.12360000
H        1.95060000      -1.62930000       2.21720000
H       -1.47460000      -1.72310000       2.26890000
H       -2.13230000      -1.05910000      -0.46450000
