17
Properties=species:S:1:pos:R:3 gdb_48885=T pbc="F F F"
O       -0.79830000       1.02610000       0.40280000
C        0.25240000       0.87880000      -0.16830000
C        1.42010000       1.82150000      -0.05620000
C        1.39680000       2.94770000       1.01080000
N        1.80350000       3.98120000      -0.00310000
C        2.91190000       3.39420000      -0.82690000
C        3.71710000       2.21690000      -0.30240000
N        2.70730000       1.13790000      -0.17040000
C        1.52540000       2.98350000      -1.08990000
H        0.43850000       0.01880000      -0.84900000
H        0.38730000       3.17510000       1.35700000
H        2.07110000       2.83740000       1.86730000
H        3.39730000       4.13700000      -1.44940000
H        4.49870000       1.93200000      -1.01610000
H        4.21290000       2.46100000       0.64790000
H        2.88980000       0.57220000       0.65420000
H        0.90930000       3.18030000      -1.95830000
