22
Properties=species:S:1:pos:R:3 gdb_105409=T pbc="F F F"
C        0.04300000       1.34860000      -0.68030000
C       -0.10550000      -0.06520000      -0.11270000
C       -1.54880000      -0.46180000       0.24360000
C       -2.46210000      -0.69860000      -0.99540000
C       -2.19840000      -2.22370000      -0.86710000
C       -1.67600000      -1.98100000       0.57380000
N       -2.12570000       0.44970000       1.22940000
C       -1.73280000       0.50420000       2.52660000
O       -0.87300000      -0.19350000       3.02650000
H        1.09030000       1.56410000      -0.91180000
H       -0.53130000       1.48110000      -1.60410000
H       -0.29890000       2.10110000       0.03680000
H        0.28040000      -0.79590000      -0.83430000
H        0.49600000      -0.17090000       0.79570000
H       -3.50540000      -0.44980000      -0.77740000
H       -2.17280000      -0.20580000      -1.92680000
H       -3.06210000      -2.88160000      -0.97890000
H       -1.41590000      -2.56810000      -1.54760000
H       -0.75920000      -2.48620000       0.88160000
H       -2.44430000      -2.15910000       1.32870000
H       -2.83620000       1.09600000       0.92370000
H       -2.30110000       1.26550000       3.10000000
