11
Properties=species:S:1:pos:R:3 gdb_738=T pbc="F F F"
C       -0.02560000       1.50180000      -0.01050000
C        0.00160000       0.00830000       0.02690000
N       -0.07770000      -0.72940000      -1.08470000
N       -0.02030000      -1.97680000      -0.63300000
N        0.08950000      -2.13020000       0.67810000
C        0.10550000      -0.87360000       1.12170000
H        0.88800000       1.92840000       0.41660000
H       -0.11630000       1.84680000      -1.04220000
H       -0.87000000       1.90010000       0.56180000
H       -0.05860000      -2.76630000      -1.25670000
H        0.18840000      -0.66070000       2.17590000
