19
Properties=species:S:1:pos:R:3 gdb_103740=T pbc="F F F"
C        0.12500000       1.12200000      -0.32510000
O       -0.16480000      -0.09470000       0.34640000
C       -1.44470000      -0.62340000       0.10970000
C       -2.56080000       0.04900000       0.87000000
C       -1.67130000      -1.26610000      -1.22940000
C       -1.33480000      -2.15160000      -0.03290000
O       -0.06610000      -2.70900000       0.07240000
C       -2.39150000      -3.03810000       0.52170000
O       -3.58120000      -2.86760000       0.38870000
H        1.16710000       1.36160000      -0.10440000
H       -0.00250000       1.02320000      -1.41080000
H       -0.51080000       1.94120000       0.03310000
H       -2.73100000       1.06180000       0.48870000
H       -3.48840000      -0.51450000       0.76360000
H       -2.30790000       0.11980000       1.93230000
H       -2.69070000      -1.32320000      -1.59650000
H       -0.89070000      -1.18830000      -1.97790000
H        0.52710000      -1.98060000       0.30750000
H       -1.97640000      -3.90340000       1.08050000
