19
Properties=species:S:1:pos:R:3 gdb_72959=T pbc="F F F"
C       -0.07820000       1.57540000       0.04780000
C       -0.00380000       0.07570000       0.06460000
C       -1.22950000      -0.84720000      -0.06680000
C       -0.59490000      -1.83680000       0.95870000
C        0.62240000      -0.91630000       1.06780000
C        1.22820000      -0.71070000      -0.31430000
O        1.10290000      -1.68710000      -1.31830000
C        2.48640000      -0.00470000      -0.33680000
C        3.55950000       0.53920000      -0.36600000
H        0.89130000       2.02800000       0.27120000
H       -0.39640000       1.93640000      -0.93780000
H       -0.80480000       1.93660000       0.78400000
H       -2.13180000      -0.36930000       0.32240000
H       -1.43010000      -1.23510000      -1.06730000
H       -1.16070000      -1.89450000       1.89080000
H       -0.39590000      -2.84950000       0.59900000
H        1.21260000      -0.72370000       1.95680000
H        1.81380000      -2.32630000      -1.19490000
H        4.50160000       1.02800000      -0.39930000
