18
Properties=species:S:1:pos:R:3 gdb_39057=T pbc="F F F"
C       -0.00960000       1.47960000      -0.15180000
C        1.36800000       2.10140000      -0.04700000
C        2.15610000       2.02980000       1.02920000
C        1.83630000       1.37790000       2.32730000
N        0.43210000       1.36850000       2.78100000
C        1.05530000       0.09130000       2.44790000
C        0.56630000      -0.66290000       1.24780000
O       -0.83160000      -0.66630000       0.93680000
C        0.06410000      -0.03050000       0.01910000
H       -0.66100000       1.87720000       0.62820000
H       -0.45890000       1.71260000      -1.12150000
H        1.74680000       2.62390000      -0.92160000
H        3.14070000       2.48880000       0.98350000
H        2.59390000       1.52280000       3.09450000
H        0.37840000       1.48810000       3.78790000
H        1.34620000      -0.55230000       3.27660000
H        1.04050000      -1.64110000       1.14590000
H        0.20900000      -0.59080000      -0.90600000
