19
Properties=species:S:1:pos:R:3 gdb_90637=T pbc="F F F"
C       -0.00900000       1.50780000      -0.07610000
C        0.07540000      -0.01430000      -0.05410000
C        1.23030000      -0.61750000      -0.90140000
N        1.97460000      -1.08940000       0.32340000
C        0.81750000      -0.58480000       1.15760000
C        1.08110000      -2.04900000       1.03980000
C        0.17350000      -3.05750000       0.35580000
C        1.77910000      -2.62140000       2.17820000
N        2.29300000      -3.10180000       3.09540000
H        0.96950000       1.96030000       0.11620000
H       -0.35960000       1.86150000      -1.05110000
H       -0.70580000       1.87490000       0.68460000
H       -0.91810000      -0.44120000      -0.22690000
H        0.99270000      -1.40640000      -1.61970000
H        1.83520000       0.14200000      -1.40150000
H        0.97760000      -0.06130000       2.09600000
H       -0.45970000      -2.60070000      -0.40440000
H        0.76940000      -3.84560000      -0.11420000
H       -0.47760000      -3.52580000       1.09900000
