23
Properties=species:S:1:pos:R:3 gdb_102602=T pbc="F F F"
C       -0.18720000       1.51440000       0.14060000
C        0.08490000       0.01050000       0.03060000
C        0.81150000      -0.41590000      -1.25980000
C        2.29090000       0.01150000      -1.24170000
O        2.90710000       0.01520000      -2.51330000
C        0.65860000      -1.94740000      -1.44910000
C        1.25790000      -2.50040000      -2.66320000
C        1.73530000      -2.97400000      -3.66480000
C        2.29700000      -3.55580000      -4.87710000
H        0.73480000       2.10340000       0.14650000
H       -0.79740000       1.86480000      -0.69890000
H       -0.72770000       1.74490000       1.06400000
H        0.66840000      -0.32560000       0.89950000
H       -0.87160000      -0.52410000       0.09000000
H        0.34150000       0.08390000      -2.11660000
H        2.37530000       1.03780000      -0.87130000
H        2.83670000      -0.63040000      -0.52630000
H        2.79720000      -0.86730000      -2.88890000
H        1.09140000      -2.45100000      -0.57250000
H       -0.41020000      -2.19770000      -1.44090000
H        1.67800000      -4.38420000      -5.23890000
H        2.36190000      -2.81530000      -5.68170000
H        3.30530000      -3.94720000      -4.70340000
