18
Properties=species:S:1:pos:R:3 gdb_37569=T pbc="F F F"
C       -0.10970000       1.62890000      -0.04170000
C        1.38120000       1.28830000       0.03050000
N        1.11310000       0.12440000       1.01440000
C       -0.04970000       0.10020000      -0.04090000
C        1.26270000       0.02340000      -0.89880000
O        1.77110000      -0.15620000      -2.17670000
C        3.10400000      -0.70590000      -1.93870000
C        3.36100000      -0.76870000      -0.38250000
C        1.91410000      -0.85330000       0.10140000
H       -0.53610000       2.08670000       0.85430000
H       -0.47050000       2.10750000      -0.95410000
H        2.23280000       1.95250000       0.17990000
H       -0.83950000      -0.64750000       0.04030000
H        3.13930000      -1.70590000      -2.38500000
H        3.83300000      -0.07080000      -2.44960000
H        3.99240000      -1.61920000      -0.11760000
H        3.85830000       0.14370000      -0.04390000
H        1.54370000      -1.87760000       0.20460000
