19
Properties=species:S:1:pos:R:3 gdb_91716=T pbc="F F F"
C       -0.22480000       1.56350000      -0.02470000
C        0.03800000       0.05840000      -0.01040000
C        0.80220000      -0.50070000      -1.25330000
C        1.92060000      -1.33570000      -0.57340000
O        1.30790000      -1.77970000       0.64340000
C        0.92580000      -0.48240000       1.14240000
C        2.28930000       0.23010000       1.22030000
C        2.95590000      -0.32920000      -0.05020000
O        4.01580000      -0.03050000      -0.52920000
H        0.69190000       2.14060000      -0.18270000
H       -0.91630000       1.82620000      -0.83150000
H       -0.67540000       1.89840000       0.91620000
H       -0.92190000      -0.46080000       0.07110000
H        0.16730000      -1.14260000      -1.86750000
H        1.20680000       0.28780000      -1.89500000
H        2.32820000      -2.17040000      -1.14000000
H        0.41190000      -0.60130000       2.09630000
H        2.27840000       1.32140000       1.22100000
H        2.84340000      -0.10620000       2.10240000
