17
Properties=species:S:1:pos:R:3 gdb_12523=T pbc="F F F"
C       -0.66670000       1.45790000       0.09190000
C        0.05370000       0.09280000       0.01970000
C        0.62830000      -0.10830000      -1.36170000
C        1.89720000      -0.02490000      -1.74710000
C        3.06310000       0.30330000      -0.85980000
O        3.12800000      -0.37580000       0.39860000
C        2.11540000      -0.27740000       1.29720000
N        0.87980000      -0.05980000       1.20140000
H        0.05130000       2.27390000      -0.03370000
H       -1.42330000       1.54180000      -0.69400000
H       -1.15100000       1.56760000       1.06520000
H       -0.73060000      -0.67000000       0.14110000
H       -0.12610000      -0.31270000      -2.12070000
H        2.13910000      -0.16100000      -2.79820000
H        4.00010000       0.03420000      -1.35340000
H        3.09920000       1.38560000      -0.66560000
H        2.53320000      -0.46130000       2.28880000
