17
Properties=species:S:1:pos:R:3 gdb_7054=T pbc="F F F"
C        0.11370000       1.43890000       0.02940000
C        0.04280000      -0.01500000      -0.00280000
C       -0.00880000      -1.21780000      -0.01320000
C       -0.10240000      -2.67630000      -0.04770000
C       -1.56300000      -3.16530000      -0.02130000
N        0.61710000      -3.19150000      -1.21840000
C        1.24030000      -4.39630000      -1.20800000
O        1.24230000      -5.16700000      -0.26970000
H        1.15140000       1.78800000      -0.00790000
H       -0.41920000       1.88430000      -0.81770000
H       -0.33560000       1.83330000       0.94720000
H        0.41130000      -3.10200000       0.82210000
H       -2.10840000      -2.79860000      -0.89540000
H       -1.57820000      -4.25770000      -0.01960000
H       -2.06630000      -2.80180000       0.87870000
H        0.68010000      -2.60520000      -2.03510000
H        1.75710000      -4.60450000      -2.16590000
