18
Properties=species:S:1:pos:R:3 gdb_98338=T pbc="F F F"
C        0.04300000       1.35320000       0.12310000
O        0.10780000      -0.07630000       0.00940000
C        0.60470000      -0.54250000      -1.14920000
O        0.99080000       0.16280000      -2.04840000
C        0.59820000      -2.06480000      -1.16770000
C       -0.84530000      -2.59940000      -1.19640000
C        1.43450000      -2.54930000      -2.37110000
C        1.57170000      -4.00300000      -2.39890000
N        1.67290000      -5.15420000      -2.40520000
H        1.04080000       1.78990000       0.03650000
H       -0.59420000       1.77210000      -0.65950000
H       -0.37820000       1.55230000       1.10810000
H        1.07180000      -2.40450000      -0.24000000
H       -1.39840000      -2.25390000      -0.32100000
H       -1.36970000      -2.25620000      -2.09450000
H       -0.84290000      -3.69230000      -1.19960000
H        0.97150000      -2.21160000      -3.30380000
H        2.43100000      -2.09850000      -2.34490000
