18
Properties=species:S:1:pos:R:3 gdb_114437=T pbc="F F F"
C        0.37420000       0.63260000      -0.42770000
O       -0.59310000       0.35120000       0.58370000
C       -1.54980000      -0.60930000       0.33510000
O       -2.27500000      -0.33140000      -0.88180000
C       -2.68940000      -1.56920000      -1.39900000
C       -1.63760000      -2.58630000      -1.79750000
N       -0.36440000      -2.19310000      -1.15700000
C       -1.12610000      -2.07690000       0.14990000
C       -2.39300000      -2.71770000      -0.47990000
H        0.82230000       1.58800000      -0.14280000
H        1.14900000      -0.13760000      -0.47860000
H       -0.09620000       0.72050000      -1.40920000
H       -2.23970000      -0.53720000       1.19030000
H       -3.61400000      -1.52300000      -1.96140000
H       -1.67280000      -3.16760000      -2.71220000
H        0.21640000      -3.02600000      -1.09050000
H       -0.64820000      -2.52870000       1.01750000
H       -3.08770000      -3.43910000      -0.06800000
