20
Properties=species:S:1:pos:R:3 gdb_40367=T pbc="F F F"
C       -0.13320000       1.46200000      -0.07810000
C        1.25160000       0.88750000       0.07440000
C        0.05140000      -0.03180000       0.03590000
C       -0.35500000      -0.75900000       1.26360000
C       -0.41160000      -2.25570000       1.38620000
C       -1.64570000      -1.44000000       1.68530000
C       -1.52710000      -0.66680000       3.00790000
C       -0.25920000      -0.85620000       3.74120000
N       -0.27330000       0.03690000       2.56480000
H       -0.54890000       1.97370000       0.78160000
H       -0.42560000       1.86520000      -1.04160000
H        1.92030000       0.89160000      -0.77920000
H        1.73560000       1.02390000       1.03470000
H       -0.08480000      -0.60760000      -0.87510000
H       -0.44950000      -2.74790000       0.41840000
H        0.11410000      -2.84020000       2.13390000
H       -2.57560000      -1.55440000       1.14420000
H       -2.35540000      -0.09760000       3.41850000
H       -0.14030000      -0.29470000       4.66410000
H        0.28520000      -1.79290000       3.72710000
