17
Properties=species:S:1:pos:R:3 gdb_50785=T pbc="F F F"
O       -0.53550000       0.41940000       0.53240000
C       -0.06940000       1.46460000       0.17060000
C        1.36870000       1.62460000      -0.32940000
C        1.47180000       2.57760000      -1.42480000
C        1.49590000       3.36020000      -2.34010000
C        1.56750000       4.32580000      -3.42930000
C        2.39100000       5.58620000      -3.05100000
C        2.45870000       6.54750000      -4.14330000
C        2.49520000       7.31940000      -5.06380000
H       -0.65420000       2.41000000       0.18690000
H        1.96260000       1.97020000       0.53110000
H        1.74920000       0.63360000      -0.59800000
H        2.01560000       3.86110000      -4.31510000
H        0.55860000       4.63620000      -3.72460000
H        1.94290000       6.05290000      -2.16630000
H        3.40100000       5.27750000      -2.75820000
H        2.53730000       8.01200000      -5.86750000
