15
Properties=species:S:1:pos:R:3 gdb_68740=T pbc="F F F"
O       -0.03130000       1.45240000      -0.10990000
C       -0.03380000       0.08170000      -0.08740000
C       -0.25720000      -0.75920000       1.13440000
C       -1.19280000      -0.96310000      -0.04020000
C       -2.60390000      -0.79650000       0.02070000
N       -3.75070000      -0.63990000       0.05850000
N       -0.53280000      -1.82300000      -1.04770000
C       -0.44270000      -1.00130000      -2.27150000
C        0.54520000      -0.74940000      -1.19550000
H        0.16330000       1.78980000       0.77010000
H        0.41920000      -1.56700000       1.40210000
H       -0.70800000      -0.23670000       1.97430000
H       -0.10330000      -1.56920000      -3.13180000
H       -1.22180000      -0.27160000      -2.47270000
H        1.59140000      -1.02220000      -1.28800000
