18
Properties=species:S:1:pos:R:3 gdb_88506=T pbc="F F F"
O       -0.08610000       1.02450000       1.40530000
C        0.00730000       0.01570000       0.44210000
C       -0.62480000      -1.29050000       0.82580000
C       -1.24780000      -0.44790000      -0.26430000
C       -2.55580000       0.29110000      -0.10390000
C       -3.72960000      -0.41300000       0.50850000
N       -3.06770000       0.67070000       1.23090000
C       -2.77770000       1.27740000      -1.13780000
C       -2.92450000       2.07870000      -2.02220000
H       -0.33340000       1.84400000       0.96210000
H        0.94460000      -0.00380000      -0.11270000
H       -0.14540000      -2.22000000       0.54110000
H       -1.09810000      -1.31380000       1.80240000
H       -1.10200000      -0.81090000      -1.27770000
H       -4.73240000      -0.18660000       0.15940000
H       -3.56510000      -1.44090000       0.82210000
H       -2.43740000       0.32420000       1.94880000
H       -3.07310000       2.79260000      -2.79410000
