18
Properties=species:S:1:pos:R:3 gdb_125931=T pbc="F F F"
C        0.23240000       1.47360000       0.06770000
C       -0.05190000      -0.02640000      -0.04840000
C        0.67820000      -0.66470000      -1.28210000
C        1.88430000      -1.26470000      -0.62590000
N        3.03150000      -1.80150000      -1.01150000
N        3.59970000      -2.17470000       0.15610000
C        2.83900000      -1.88800000       1.26820000
C        1.70740000      -1.28980000       0.76690000
N        0.45510000      -0.78180000       1.14410000
H        1.31100000       1.66010000       0.11190000
H       -0.17370000       2.01510000      -0.79320000
H       -0.22700000       1.89310000       0.96990000
H       -1.13270000      -0.18210000      -0.12220000
H        0.05240000      -1.43310000      -1.75100000
H        0.90240000       0.08540000      -2.04610000
H        4.51520000      -2.58830000       0.13880000
H        3.18090000      -2.12770000       2.26140000
H        0.44740000      -0.22180000       1.98780000
