20
Properties=species:S:1:pos:R:3 gdb_72543=T pbc="F F F"
C       -0.00930000       1.52950000       0.02200000
C        0.00590000       0.00770000      -0.00340000
C        0.67890000      -0.54530000      -1.27500000
O        0.70450000      -1.97650000      -1.21980000
C       -0.01370000      -2.45410000      -0.10020000
C        0.67360000      -1.99370000       1.18870000
N        0.69520000      -0.51260000       1.19290000
O       -1.35000000      -2.00350000      -0.12200000
C       -1.41270000      -0.57970000       0.03750000
H        1.01160000       1.92790000       0.02110000
H       -0.52750000       1.93580000      -0.85220000
H       -0.50820000       1.88910000       0.92620000
H        0.14000000      -0.23180000      -2.18110000
H        1.71150000      -0.17640000      -1.35060000
H       -0.04810000      -3.54090000      -0.19390000
H        0.11660000      -2.37620000       2.05360000
H        1.68520000      -2.41060000       1.22750000
H        1.65360000      -0.18010000       1.19140000
H       -1.88990000      -0.33480000       0.99520000
H       -2.02310000      -0.17260000      -0.77760000
