20
Properties=species:S:1:pos:R:3 gdb_113983=T pbc="F F F"
C        0.14300000       0.99390000      -0.34220000
O       -0.38220000      -0.12190000       0.35350000
C        0.49030000      -0.62230000       1.31440000
C        0.21980000      -2.01010000       1.79580000
C        1.45740000      -1.73280000       0.95450000
C        1.53130000      -2.26390000      -0.45960000
C        1.85210000      -3.77440000      -0.49050000
C        1.94520000      -4.30040000      -1.85050000
N        2.01670000      -4.69620000      -2.93390000
H        1.05900000       0.73970000      -0.89340000
H       -0.62230000       1.31880000      -1.05040000
H        0.36920000       1.82340000       0.34420000
H        0.82930000       0.12070000       2.03810000
H        0.32930000      -2.23220000       2.85100000
H       -0.60060000      -2.52470000       1.30540000
H        2.40420000      -1.72340000       1.49000000
H        0.58030000      -2.08420000      -0.96870000
H        2.30070000      -1.72870000      -1.02760000
H        2.80000000      -3.97250000       0.02360000
H        1.08020000      -4.33230000       0.05100000
