17
Properties=species:S:1:pos:R:3 gdb_14473=T pbc="F F F"
C       -0.11710000       1.52600000      -0.02570000
C        0.06970000       0.04980000       0.03090000
C        0.67690000      -0.97420000      -0.85210000
C        1.39890000      -1.66660000       0.29950000
C        0.32800000      -0.98930000       1.20110000
O        0.58290000      -0.62460000       2.51300000
C       -0.97630000      -1.65990000       0.73280000
N       -0.81680000      -0.97460000      -0.59230000
H        0.79560000       2.05100000       0.27530000
H       -0.37160000       1.83180000      -1.04520000
H       -0.92540000       1.85020000       0.63880000
H        0.97390000      -0.90070000      -1.89050000
H        1.46340000      -2.76090000       0.31190000
H        2.38600000      -1.22540000       0.46130000
H        0.93190000      -1.38750000       2.98690000
H       -1.02810000      -2.75530000       0.69690000
H       -1.86260000      -1.25600000       1.22850000
