19
Properties=species:S:1:pos:R:3 gdb_90669=T pbc="F F F"
C       -0.07440000       1.42960000      -0.04040000
C        0.00550000      -0.07270000       0.12990000
O        0.98030000      -0.65710000      -0.79520000
C        1.80240000      -1.05640000       0.30140000
C        0.80570000      -0.56950000       1.33640000
C        1.09170000      -2.03710000       1.16530000
C        0.21400000      -3.22130000       0.77970000
O        0.91020000      -4.06080000       1.73310000
C        1.72860000      -2.96590000       2.19510000
H        0.90630000       1.88960000       0.11170000
H       -0.42180000       1.67630000      -1.04800000
H       -0.77890000       1.85760000       0.68150000
H       -0.98120000      -0.53400000      -0.00830000
H        2.87890000      -0.96560000       0.19850000
H        0.94280000      -0.03950000       2.27110000
H       -0.85300000      -3.12860000       1.02270000
H        0.32260000      -3.58090000      -0.24990000
H        2.80090000      -3.16900000       2.07410000
H        1.52770000      -2.71890000       3.24670000
