21
Properties=species:S:1:pos:R:3 gdb_88198=T pbc="F F F"
C       -0.09290000       1.51030000      -0.11440000
C        0.03200000       0.01050000       0.04710000
C        1.35410000      -0.70920000      -0.15970000
C        0.71550000      -0.63900000       1.20900000
C        1.36010000       0.13220000       2.33790000
O        2.27290000      -0.69180000       3.05390000
C        1.63110000      -1.86120000       3.53480000
C        1.00200000      -2.63710000       2.38310000
O        0.08400000      -1.80870000       1.67680000
H        0.81380000       2.03420000       0.20270000
H       -0.26560000       1.76870000      -1.16470000
H       -0.93060000       1.90920000       0.46820000
H       -0.83610000      -0.55250000      -0.28650000
H        1.33600000      -1.66540000      -0.67030000
H        2.24020000      -0.10910000      -0.34360000
H        1.93640000       0.98400000       1.97090000
H        0.57780000       0.50340000       3.02140000
H        2.39600000      -2.45910000       4.03990000
H        0.85020000      -1.59520000       4.26690000
H        1.79060000      -2.99470000       1.70360000
H        0.43290000      -3.49650000       2.75040000
