20
Properties=species:S:1:pos:R:3 gdb_96527=T pbc="F F F"
N       -0.47240000       1.59680000      -0.43070000
C        0.09800000       0.33060000       0.01420000
C       -0.99910000      -0.60790000       0.62020000
C       -1.52420000      -1.75670000      -0.27690000
C       -0.62070000      -3.00930000      -0.34850000
C        0.69950000      -2.79930000      -1.09240000
O        1.33440000      -1.61180000      -0.57920000
C        0.78810000      -0.46280000      -1.08440000
O        0.76650000      -0.19710000      -2.25520000
H        0.27850000       2.20320000      -0.75130000
H       -1.03130000       1.42570000      -1.26440000
H        0.83280000       0.54210000       0.79820000
H       -0.62530000      -1.04250000       1.55230000
H       -1.83080000       0.05020000       0.88670000
H       -2.49140000      -2.07280000       0.12830000
H       -1.73270000      -1.38690000      -1.28990000
H       -0.40350000      -3.34180000       0.67420000
H       -1.16480000      -3.82680000      -0.83750000
H        1.39660000      -3.62200000      -0.91970000
H        0.54970000      -2.68740000      -2.17150000
