16
Properties=species:S:1:pos:R:3 gdb_125791=T pbc="F F F"
C       -0.00300000       1.52020000      -0.03520000
C       -0.00390000       0.02780000       0.04780000
N       -0.00320000      -0.68460000      -1.06360000
O       -0.00430000      -2.04410000      -0.67360000
C       -0.00540000      -2.06250000       0.65420000
C       -0.00520000      -0.82570000       1.18690000
C       -0.00650000      -0.94550000       2.67620000
O       -0.00750000      -2.37400000       2.90820000
C       -0.00680000      -3.13260000       1.69120000
H        0.88050000       1.93790000       0.45860000
H       -0.00390000       1.83740000      -1.07940000
H       -0.88470000       1.93910000       0.46070000
H        0.88050000      -0.50990000       3.15640000
H       -0.89390000      -0.50900000       3.15490000
H       -0.89590000      -3.77740000       1.64820000
H        0.88170000      -3.77830000       1.64980000
