21
Properties=species:S:1:pos:R:3 gdb_41658=T pbc="F F F"
C       -0.03610000       1.55030000       0.02790000
C        1.46150000       1.99520000       0.00750000
C        2.22990000       0.65870000      -0.05620000
C        2.01550000      -0.00660000      -1.41910000
C        1.65720000      -1.46210000      -1.20030000
C        1.75710000      -1.72970000       0.29550000
C        1.34660000      -0.32680000       0.76060000
C        0.04840000       0.01050000      -0.02650000
C        0.55700000      -0.44000000      -1.39920000
H       -0.53310000       1.88160000       0.94550000
H       -0.60880000       1.95710000      -0.81090000
H        1.69790000       2.64250000      -0.84230000
H        1.71980000       2.55090000       0.91490000
H        3.27540000       0.72280000       0.25660000
H        2.50100000       0.34510000      -2.32050000
H        1.87040000      -2.21380000      -1.94930000
H        1.06630000      -2.50850000       0.63760000
H        2.76940000      -2.00250000       0.61440000
H        1.30870000      -0.14960000       1.83630000
H       -0.85430000      -0.50420000       0.31300000
H       -0.06430000      -0.41720000      -2.28550000
