17
Properties=species:S:1:pos:R:3 gdb_47024=T pbc="F F F"
O        0.00550000      -0.05430000       0.06020000
C       -0.00820000       1.16260000      -0.02170000
N       -1.22160000       1.85420000      -0.08190000
C       -1.35920000       3.27430000       0.24110000
C       -0.27650000       3.98570000      -0.55460000
C        0.48200000       5.27230000      -0.09610000
N        1.74000000       4.49600000      -0.27390000
C        1.04280000       3.29850000      -0.31110000
C        1.20920000       1.99740000      -0.04520000
H       -2.00780000       1.25180000       0.11280000
H       -2.36580000       3.60310000      -0.03470000
H       -1.22570000       3.46880000       1.31850000
H       -0.53480000       4.02200000      -1.61660000
H        0.40530000       6.15980000      -0.72860000
H        0.27850000       5.53800000       0.94820000
H        2.56930000       4.63610000       0.28810000
H        2.14780000       1.52200000       0.20690000
