14
Properties=species:S:1:pos:R:3 gdb_5774=T pbc="F F F"
C        0.45520000       1.50040000       0.21670000
O        1.15940000       0.35860000      -0.26380000
C       -0.22400000       0.20010000       0.10070000
C       -0.53450000      -0.64510000       1.25860000
C       -1.42040000      -1.66540000       1.43370000
C       -1.27570000      -2.09950000       2.79070000
C       -0.31190000      -1.31140000       3.33300000
O        0.14710000      -0.41860000       2.41730000
H        0.75400000       1.85170000       1.20220000
H        0.25150000       2.27670000      -0.52020000
H       -0.89160000       0.03730000      -0.74410000
H       -2.09020000      -2.06170000       0.68650000
H       -1.81350000      -2.89150000       3.28750000
H        0.14610000      -1.25730000       4.30680000
