19
Properties=species:S:1:pos:R:3 gdb_88026=T pbc="F F F"
C       -0.08590000       1.50100000      -0.08240000
C        0.09640000      -0.00020000      -0.05660000
C        1.47590000      -0.61480000      -0.16490000
C        0.71760000      -0.67760000       1.12480000
C        1.05520000      -0.10980000       2.49700000
O        0.50390000      -1.28090000       3.14390000
C        0.21630000      -1.92450000       1.87430000
C       -1.17770000      -2.30150000       1.70630000
C       -2.32620000      -2.61450000       1.53710000
H        0.74860000       2.01320000       0.40860000
H       -0.13940000       1.87190000      -1.11140000
H       -1.00720000       1.79950000       0.42940000
H       -0.70560000      -0.56350000      -0.52850000
H        1.59570000      -1.53170000      -0.73400000
H        2.32980000       0.05560000      -0.21490000
H        2.12430000       0.00920000       2.71610000
H        0.52340000       0.80390000       2.79070000
H        0.85740000      -2.80750000       1.73920000
H       -3.34180000      -2.89470000       1.40180000
