17
Properties=species:S:1:pos:R:3 gdb_91505=T pbc="F F F"
O       -0.11840000       1.37630000       0.01030000
C        0.03240000      -0.02490000       0.01410000
C        0.59770000      -0.61170000       1.33970000
C       -0.66450000      -1.34690000       1.75940000
O       -1.76310000      -0.34540000       1.44150000
C       -1.35920000      -0.70880000       0.02600000
C       -1.74770000      -1.32980000      -1.34100000
O       -0.87470000      -2.46910000      -0.92920000
C       -1.21150000      -2.08400000       0.47240000
H       -0.73020000       1.57450000       0.73200000
H        0.62820000      -0.28270000      -0.86170000
H        1.44830000      -1.28350000       1.19770000
H        0.87820000       0.17930000       2.03820000
H       -0.77360000      -1.76360000       2.76050000
H       -2.78600000      -1.65730000      -1.44580000
H       -1.37930000      -0.84520000      -2.24800000
H       -2.15000000      -2.57860000       0.73560000
