19
Properties=species:S:1:pos:R:3 gdb_36370=T pbc="F F F"
N       -0.13060000      -0.96920000      -0.68310000
C       -0.03050000       0.06890000      -0.18510000
C        0.10950000       1.38170000       0.44590000
C        1.48660000       1.98850000       0.22750000
C        1.80800000       2.67630000      -1.07830000
C        1.63970000       3.49090000       0.17680000
N        0.45360000       4.29330000       0.28880000
C        0.35160000       5.15640000       1.46380000
C        0.61900000       5.73430000       0.11780000
H       -0.65320000       2.05760000       0.04810000
H       -0.09750000       1.27240000       1.51730000
H        2.29630000       1.44020000       0.69870000
H        2.79990000       2.55910000      -1.49870000
H        1.00910000       2.74780000      -1.80840000
H        2.54570000       3.90120000       0.63130000
H       -0.63510000       5.23170000       1.91130000
H        1.17590000       5.14500000       2.17460000
H        1.62220000       6.11050000      -0.07310000
H       -0.16950000       6.23680000      -0.43460000
