14
Properties=species:S:1:pos:R:3 gdb_42876=T pbc="F F F"
O       -0.03930000       0.04070000       0.00670000
C       -0.04590000       1.23150000      -0.03270000
C       -1.10320000       2.36150000       0.08830000
C        0.00240000       3.12830000       0.87020000
C        1.02820000       2.35790000      -0.00550000
O        1.11780000       2.97050000      -1.30680000
C       -0.05550000       3.22680000      -1.97500000
O       -0.04260000       3.64660000      -3.09840000
N       -1.19250000       2.97950000      -1.23570000
H       -2.09040000       2.18620000       0.51160000
H        0.00370000       4.21440000       0.77000000
H        0.05370000       2.82370000       1.91770000
H        2.04590000       2.16650000       0.32840000
H       -2.05010000       2.94040000      -1.76220000
