23
Properties=species:S:1:pos:R:3 gdb_97645=T pbc="F F F"
C       -1.21990000       2.51870000      -1.11670000
C       -0.81120000       1.17920000      -0.47730000
C       -1.90150000       0.21060000      -0.42150000
C       -2.81400000      -0.57630000      -0.38750000
C       -3.91390000      -1.54920000      -0.33210000
C       -3.39340000      -2.99270000      -0.26100000
C       -4.51520000      -4.03120000      -0.31920000
O       -4.75160000      -1.35030000       0.79990000
C       -5.47910000      -0.14260000       0.77100000
H       -0.37000000       3.20750000      -1.13670000
H       -1.56760000       2.36960000      -2.14250000
H       -2.03000000       2.98760000      -0.55140000
H        0.02720000       0.74580000      -1.03780000
H       -0.43210000       1.35680000       0.53730000
H       -4.52220000      -1.43930000      -1.24860000
H       -2.68890000      -3.13760000      -1.08680000
H       -2.82210000      -3.09580000       0.66780000
H       -4.11030000      -5.04510000      -0.24620000
H       -5.22220000      -3.88230000       0.50000000
H       -5.07090000      -3.96180000      -1.26150000
H       -6.13800000      -0.08760000      -0.11020000
H       -6.09420000      -0.11830000       1.67380000
H       -4.81590000       0.73320000       0.76310000
