16
Properties=species:S:1:pos:R:3 gdb_30859=T pbc="F F F"
C       -0.43460000       1.26580000      -0.08970000
N        0.46090000       0.13180000       0.14400000
C        0.77890000      -0.66880000      -0.92400000
C        0.52960000      -1.95480000      -1.27010000
O       -0.15880000      -2.87380000      -0.56760000
N        1.08830000      -2.27970000      -2.49330000
C        1.65770000      -1.16760000      -2.86770000
N        2.29730000      -0.93790000      -4.05910000
O        1.54790000      -0.14370000      -2.02300000
H       -0.01620000       2.03090000      -0.76050000
H       -1.36510000       0.89740000      -0.53050000
H       -0.67270000       1.73760000       0.86850000
H        1.25340000       0.38650000       0.72190000
H       -0.15330000      -3.67790000      -1.10020000
H        2.59930000      -1.78340000      -4.51960000
H        3.00010000      -0.21430000      -4.03030000
