17
Properties=species:S:1:pos:R:3 gdb_89840=T pbc="F F F"
O        0.46190000       0.88550000       0.78570000
C       -0.13550000      -0.12530000       0.02940000
C       -1.58550000       0.13460000      -0.40450000
C       -1.76410000      -0.82890000      -1.57740000
C       -2.75040000      -1.91750000      -1.57420000
O       -2.94880000      -0.73290000      -2.35520000
C       -0.42180000      -0.92670000      -2.30520000
C        0.57580000      -0.35200000      -1.30650000
O        1.71920000      -0.02310000      -1.50290000
H        1.35340000       0.99380000       0.42100000
H       -0.10170000      -1.09500000       0.56450000
H       -2.31760000      -0.01600000       0.39060000
H       -1.67110000       1.16880000      -0.75900000
H       -2.55680000      -2.82480000      -2.14560000
H       -3.42530000      -2.03590000      -0.72730000
H       -0.14960000      -1.94160000      -2.60900000
H       -0.41850000      -0.30750000      -3.20920000
