21
Properties=species:S:1:pos:R:3 gdb_77899=T pbc="F F F"
C        0.07110000       1.64030000      -0.35490000
C        0.25980000       0.14330000      -0.18510000
C        1.52490000      -0.65730000      -0.42610000
C        2.77100000      -0.01060000       0.16620000
O        3.12510000       1.23310000      -0.41180000
C        2.10680000      -0.02480000       1.59830000
C        2.04260000       1.24170000       2.44420000
C        0.85170000      -0.63130000       0.95790000
O        0.16530000      -1.68050000       1.55670000
H        0.98620000       2.19560000      -0.15920000
H       -0.22350000       1.85790000      -1.38770000
H       -0.72560000       2.01480000       0.29890000
H       -0.58750000      -0.42670000      -0.56900000
H        1.54660000      -1.45660000      -1.15710000
H        3.62590000      -0.69810000       0.13060000
H        3.92610000       1.54510000       0.02160000
H        2.58610000      -0.81920000       2.18110000
H        1.59280000       2.08060000       1.91090000
H        1.45490000       1.06610000       3.35220000
H        3.04570000       1.54810000       2.76450000
H       -0.64040000      -1.33000000       1.95010000
