19
Properties=species:S:1:pos:R:3 gdb_100392=T pbc="F F F"
C        0.14740000       1.62710000       0.12330000
C        0.14360000       0.09800000       0.02820000
C        0.70500000      -0.46490000      -1.29740000
C       -0.10740000      -0.05530000      -2.52280000
O        2.06300000       0.04190000      -1.36920000
C        2.90470000      -0.48760000      -2.27920000
O        4.01760000      -0.08380000      -2.43210000
C        0.74760000      -1.98590000      -1.11870000
O       -0.08360000      -2.74120000      -1.54570000
H        1.15270000       2.02460000      -0.03190000
H       -0.52120000       2.08310000      -0.61220000
H       -0.19410000       1.93620000       1.11520000
H        0.74130000      -0.31650000       0.84900000
H       -0.87300000      -0.29290000       0.14630000
H       -0.10950000       1.03030000      -2.63600000
H        0.30200000      -0.49820000      -3.43450000
H       -1.13480000      -0.41040000      -2.41910000
H        2.46710000      -1.32700000      -2.85320000
H        1.60610000      -2.33690000      -0.50140000
