17
Properties=species:S:1:pos:R:3 gdb_53588=T pbc="F F F"
C       -0.06830000       1.45080000      -0.22200000
C       -0.02310000       0.01070000      -0.01210000
C        0.02980000      -1.18000000       0.15580000
C        0.06190000      -2.62420000       0.36370000
C       -1.32430000      -3.24030000       0.27460000
N       -1.78150000      -3.65290000      -1.04700000
C       -1.53470000      -4.69320000      -0.02660000
C       -0.42780000      -5.58840000      -0.26550000
N        0.45820000      -6.31440000      -0.42230000
H        0.92770000       1.89620000      -0.12280000
H       -0.44210000       1.69600000      -1.22220000
H       -0.72330000       1.94090000       0.50670000
H        0.70800000      -3.10560000      -0.37880000
H        0.48880000      -2.85480000       1.34870000
H       -2.05650000      -2.80350000       0.95110000
H       -2.78200000      -3.51450000      -1.16030000
H       -2.38750000      -5.17470000       0.44440000
