19
Properties=species:S:1:pos:R:3 gdb_27527=T pbc="F F F"
C        0.05730000       1.47010000       0.09350000
C       -0.04560000      -0.00700000      -0.03830000
C       -1.08270000      -0.88380000       0.01680000
C       -0.53570000      -2.20240000      -0.18340000
C        0.80020000      -2.00880000      -0.34910000
O        1.11720000      -0.68610000      -0.25980000
C       -1.28540000      -3.47910000      -0.20900000
C       -0.60160000      -4.79780000       0.05380000
C       -1.56360000      -4.24270000       1.07160000
H        0.47460000       1.92690000      -0.81130000
H       -0.93310000       1.89680000       0.26620000
H        0.70440000       1.75570000       0.93080000
H       -2.11950000      -0.63470000       0.18520000
H        1.62440000      -2.67560000      -0.54040000
H       -2.09210000      -3.50850000      -0.93760000
H       -0.90730000      -5.65590000      -0.53410000
H        0.45340000      -4.78420000       0.30300000
H       -1.14840000      -3.84110000       1.98920000
H       -2.53200000      -4.71770000       1.18340000
