16
Properties=species:S:1:pos:R:3 gdb_45712=T pbc="F F F"
O       -0.03200000      -0.02690000       0.03080000
C        0.01220000       1.17560000       0.03380000
N       -1.07950000       2.04000000       0.12420000
C       -0.66050000       3.37350000       0.32440000
C        0.65290000       3.49010000       0.11670000
C        1.77180000       4.34400000       0.60900000
C        2.60310000       3.24590000       1.32970000
O        2.36090000       1.99820000       0.65070000
C        1.22240000       2.13250000      -0.18360000
H       -2.00690000       1.69930000       0.32190000
H       -1.37690000       4.10820000       0.66570000
H        2.35050000       4.78840000      -0.20980000
H        1.46760000       5.14320000       1.28830000
H        3.68030000       3.43600000       1.30740000
H        2.28590000       3.15860000       2.37760000
H        1.52400000       1.99500000      -1.23520000
