19
Properties=species:S:1:pos:R:3 gdb_51636=T pbc="F F F"
O       -0.01650000       0.02810000      -0.18800000
C        0.02710000       1.22180000      -0.21030000
O        1.04140000       1.92570000       0.31930000
C        1.01820000       3.35800000       0.21260000
C        1.36590000       4.02120000       1.57920000
C        2.64920000       4.76620000       1.16190000
C        2.22070000       5.37810000      -0.20490000
C        2.18590000       3.88160000      -0.63570000
C        3.39440000       3.68510000       0.32640000
H       -0.75550000       1.86610000      -0.65830000
H        0.04310000       3.66710000      -0.17970000
H        0.57750000       4.69220000       1.93130000
H        1.53910000       3.25760000       2.34120000
H        3.15420000       5.35550000       1.92670000
H        1.29120000       5.95560000      -0.24650000
H        3.02520000       5.92770000      -0.69770000
H        2.20890000       3.57090000      -1.68020000
H        4.32560000       4.05750000      -0.10520000
H        3.54380000       2.69640000       0.76570000
