19
Properties=species:S:1:pos:R:3 gdb_107068=T pbc="F F F"
O       -0.03380000       1.40150000       0.32670000
C       -0.02610000       0.05850000      -0.12520000
C       -1.38410000      -0.57570000      -0.02130000
C       -1.91330000      -1.20910000       1.23440000
C       -1.68800000      -2.04560000      -0.01810000
C       -2.88830000      -2.22400000      -0.92330000
O       -3.86060000      -3.07270000      -0.33310000
C       -3.40160000      -0.76810000      -1.11260000
O       -2.31090000       0.10480000      -0.84920000
H       -0.74820000       1.84230000      -0.14700000
H        0.32000000      -0.00760000      -1.16920000
H        0.68760000      -0.48410000       0.50230000
H       -1.21070000      -1.34970000       2.04830000
H       -2.93100000      -1.01090000       1.55030000
H       -0.91120000      -2.80090000      -0.02870000
H       -2.55120000      -2.64160000      -1.88320000
H       -4.53650000      -3.26080000      -0.99200000
H       -3.76540000      -0.55810000      -2.12310000
H       -4.22620000      -0.60420000      -0.40490000
