21
Properties=species:S:1:pos:R:3 gdb_114754=T pbc="F F F"
O        0.32450000       1.14700000      -0.53320000
C        0.01950000      -0.23900000      -0.50100000
C       -1.38450000      -0.51130000       0.05760000
C       -2.54230000      -0.06440000      -0.87910000
C       -3.16810000      -1.33530000      -1.44140000
C       -2.25460000      -2.32140000      -2.12310000
C       -2.63790000      -2.51720000      -0.67100000
C       -1.66220000      -2.02350000       0.38290000
O       -0.49650000      -2.82730000       0.52140000
H       -0.29800000       1.57460000      -1.12980000
H        0.15160000      -0.68540000      -1.50000000
H        0.76050000      -0.69660000       0.15800000
H       -1.42860000       0.06280000       0.98820000
H       -3.29900000       0.48990000      -0.31420000
H       -2.19950000       0.61140000      -1.67530000
H       -4.20410000      -1.29890000      -1.75960000
H       -2.70120000      -3.00220000      -2.83950000
H       -1.24720000      -2.01470000      -2.38580000
H       -3.26660000      -3.36440000      -0.42090000
H       -2.14850000      -2.08230000       1.36280000
H       -0.22420000      -3.09640000      -0.36260000
