20
Properties=species:S:1:pos:R:3 gdb_28313=T pbc="F F F"
C       -0.28440000       1.52480000       0.06760000
C       -0.01550000       0.05090000      -0.00730000
C        0.13980000      -0.68370000      -1.17560000
N        0.31080000      -1.98060000      -0.77810000
C        0.71670000      -3.37380000      -1.01090000
C        0.67190000      -3.55400000       0.55680000
C        0.30710000      -2.07700000       0.57990000
C        0.10550000      -0.83120000       1.13000000
C        0.01840000      -0.43750000       2.57280000
H        0.47930000       2.05010000       0.65500000
H       -0.29840000       1.97460000      -0.92950000
H       -1.25020000       1.74400000       0.54090000
H        0.10080000      -0.37550000      -2.20810000
H       -0.00610000      -3.96180000      -1.58460000
H        1.71070000      -3.47860000      -1.45670000
H       -0.09070000      -4.25300000       0.91220000
H        1.63290000      -3.82320000       1.00410000
H        0.76300000       0.32440000       2.83560000
H       -0.96330000      -0.01830000       2.82820000
H        0.18540000      -1.29820000       3.22700000
