19
Properties=species:S:1:pos:R:3 gdb_83896=T pbc="F F F"
C       -0.06420000       1.55050000       0.01200000
C        0.04660000       0.04530000       0.05610000
C        1.34150000      -0.67260000      -0.19630000
O        2.50710000       0.10200000      -0.16890000
C        2.97660000       0.17270000       1.18340000
C        1.72840000       0.07420000       2.08070000
C        0.74100000      -0.71500000       1.20380000
C        0.11890000      -1.88830000       1.73450000
C       -0.40880000      -2.87140000       2.18640000
H        0.90190000       2.03020000       0.18060000
H       -0.41650000       1.86820000      -0.97500000
H       -0.77630000       1.92290000       0.75570000
H       -0.82890000      -0.48570000      -0.30820000
H        1.38940000      -1.55470000      -0.82780000
H        3.66410000      -0.66250000       1.38240000
H        3.52840000       1.11040000       1.29350000
H        1.93360000      -0.46330000       3.00830000
H        1.33960000       1.06180000       2.34480000
H       -0.87360000      -3.73940000       2.58310000
