23
Properties=species:S:1:pos:R:3 gdb_83539=T pbc="F F F"
C       -0.15600000       1.62270000      -0.01140000
C        0.02570000       0.11230000       0.01660000
C        1.15410000      -0.60650000      -0.79830000
C        2.44470000       0.04890000      -0.26130000
C        2.11250000       0.03740000       1.27040000
C        0.71750000      -0.62160000       1.21520000
C        0.96730000      -1.75750000       0.20670000
C        0.18650000      -3.01480000       0.02780000
C        1.67520000      -3.06270000       0.35030000
H        0.76870000       2.16910000       0.19240000
H       -0.52230000       1.94900000      -0.99140000
H       -0.89500000       1.93610000       0.73470000
H       -0.93000000      -0.37720000      -0.19440000
H        1.07420000      -0.76230000      -1.87590000
H        3.33020000      -0.54710000      -0.49830000
H        2.60560000       1.05600000      -0.65610000
H        2.82220000      -0.56460000       1.84440000
H        2.09220000       1.03830000       1.71070000
H        0.19880000      -0.79260000       2.16050000
H       -0.50870000      -3.31410000       0.80660000
H       -0.12290000      -3.30060000      -0.97320000
H        2.35340000      -3.37800000      -0.43710000
H        1.96740000      -3.39160000       1.34320000
