16
Properties=species:S:1:pos:R:3 gdb_42755=T pbc="F F F"
O       -0.10480000      -0.01780000       0.13800000
C       -0.07750000       1.16940000       0.06450000
C       -1.00320000       2.39250000       0.01130000
C       -0.00540000       3.00730000       1.05390000
C        0.94270000       2.32720000       0.00460000
C        2.45610000       2.28590000       0.01810000
C        3.00710000       1.74740000      -1.22560000
N        3.42700000       1.33660000      -2.22010000
C       -0.01590000       2.92030000      -1.08590000
H       -2.08790000       2.44990000       0.01640000
H        0.03120000       4.09950000       1.04700000
H       -0.01550000       2.60400000       2.06830000
H        2.86600000       3.29130000       0.17060000
H        2.80320000       1.66900000       0.85540000
H       -0.02850000       2.43350000      -2.06200000
H        0.01860000       4.00920000      -1.16990000
