19
Properties=species:S:1:pos:R:3 gdb_79932=T pbc="F F F"
C       -0.07540000       1.54340000      -0.00810000
C        0.08510000       0.04110000       0.01420000
C        1.41100000      -0.68050000      -0.22890000
N        2.63330000       0.06590000      -0.06540000
C        2.63810000       0.44270000       1.15760000
N        3.54210000       1.27640000       1.76180000
O        1.61710000       0.04460000       1.96960000
C        0.74120000      -0.72650000       1.13660000
C        0.12800000      -1.88930000       1.85760000
H        0.83200000       2.05840000       0.31280000
H       -0.30610000       1.88680000      -1.02170000
H       -0.89190000       1.86060000       0.64960000
H       -0.76050000      -0.50380000      -0.40130000
H        1.44510000      -1.51800000      -0.91740000
H        4.40740000       1.36540000       1.25100000
H        3.65510000       1.13190000       2.75420000
H       -0.53440000      -1.55480000       2.66380000
H       -0.46610000      -2.48750000       1.16140000
H        0.89940000      -2.53290000       2.29300000
