19
Properties=species:S:1:pos:R:3 gdb_80533=T pbc="F F F"
C       -0.24200000       1.60890000      -0.09540000
C        0.00650000       0.10880000       0.00130000
C        1.15830000      -0.58310000      -0.81530000
C        2.43410000       0.09770000      -0.26440000
C        2.11160000       0.08710000       1.27530000
O        2.06240000       1.36680000       1.88390000
C        0.71330000      -0.55300000       1.24560000
C        0.98610000      -1.69250000       0.23590000
O        0.92980000      -2.88540000       0.24560000
H        0.64710000       2.19830000       0.12360000
H       -0.60350000       1.86490000      -1.09750000
H       -1.01420000       1.90790000       0.62090000
H       -0.93120000      -0.42440000      -0.18890000
H        1.08960000      -0.76990000      -1.88560000
H        3.34240000      -0.45860000      -0.51140000
H        2.54760000       1.12280000      -0.62680000
H        2.81450000      -0.55560000       1.82290000
H        2.96160000       1.70740000       1.93320000
H        0.21210000      -0.71630000       2.19690000
