16
Properties=species:S:1:pos:R:3 gdb_49794=T pbc="F F F"
N        0.09630000       1.18530000       0.58160000
C        0.10080000       0.05240000       0.01350000
O        1.23640000      -0.46970000      -0.51170000
C        1.23760000      -1.59540000      -1.39850000
C        0.04140000      -2.48220000      -1.29100000
C       -1.05960000      -2.11190000      -0.65230000
C       -1.17970000      -0.76520000      -0.01080000
C       -1.77400000      -0.84500000       1.40920000
O       -2.30830000      -1.82880000       1.84510000
H        1.02390000       1.61050000       0.53880000
H        1.35340000      -1.21650000      -2.42520000
H        2.15230000      -2.15080000      -1.16220000
H        0.12320000      -3.45390000      -1.76880000
H       -1.91310000      -2.77250000      -0.55370000
H       -1.91520000      -0.15230000      -0.55800000
H       -1.68140000       0.09760000       1.98110000
