17
Properties=species:S:1:pos:R:3 gdb_35335=T pbc="F F F"
N       -0.20210000      -1.20800000      -0.31340000
C       -0.12180000      -0.06230000      -0.17690000
C        0.02350000       1.38600000      -0.00930000
C       -0.22690000       1.88190000       1.44860000
C        1.31140000       1.97410000       1.57950000
C        2.03410000       3.09370000       2.34580000
O        2.57770000       2.15140000       3.29330000
C        2.07350000       1.03130000       2.54280000
N        1.42100000       1.86340000       0.11630000
H       -0.54330000       1.88910000      -0.79880000
H       -0.72110000       2.85450000       1.46770000
H       -0.73940000       1.19160000       2.11750000
H        2.81370000       3.59500000       1.75690000
H        1.40030000       3.84880000       2.82710000
H        1.46960000       0.35290000       3.15730000
H        2.87850000       0.45710000       2.06120000
H        2.14210000       1.24700000      -0.24530000
