20
Properties=species:S:1:pos:R:3 gdb_92057=T pbc="F F F"
C        0.03320000       1.57780000       0.01450000
C        0.06750000       0.05000000      -0.04400000
N        1.01690000      -0.41760000      -1.05330000
C        1.04960000      -1.85030000      -1.16970000
C        2.38880000      -2.52980000      -1.02840000
C        1.42630000      -2.50980000       0.13540000
C        1.59940000      -1.54920000       1.30570000
C        0.46110000      -0.53260000       1.32760000
O       -0.11260000      -0.20030000       2.33740000
H        1.04100000       1.97780000       0.16210000
H       -0.36800000       1.99350000      -0.91570000
H       -0.60060000       1.89880000       0.84310000
H       -0.96280000      -0.31140000      -0.22870000
H        0.87060000       0.04120000      -1.94410000
H        0.28980000      -2.33570000      -1.78570000
H        2.54140000      -3.47320000      -1.54100000
H        3.25940000      -1.88530000      -0.97670000
H        0.92730000      -3.44270000       0.37430000
H        1.62960000      -2.05980000       2.27050000
H        2.53280000      -0.98370000       1.19890000
