15
Properties=species:S:1:pos:R:3 gdb_16640=T pbc="F F F"
O       -0.10310000       1.49250000      -0.06890000
C       -0.04460000       0.09030000      -0.01130000
C       -1.38160000      -0.61330000      -0.05490000
C       -2.10490000      -0.60370000      -1.34890000
N       -1.31910000      -1.78960000      -0.97610000
C        0.01250000      -1.80630000      -1.60170000
C        0.68080000      -0.48380000      -1.24080000
O        1.56000000       0.10440000      -1.81660000
H        0.67720000       1.76670000      -0.57410000
H        0.50980000      -0.24520000       0.88490000
H       -1.92100000      -0.77370000       0.87230000
H       -3.17880000      -0.75850000      -1.36540000
H       -1.72970000       0.04890000      -2.13590000
H        0.59630000      -2.63950000      -1.18920000
H       -0.04400000      -1.94270000      -2.68510000
