19
Properties=species:S:1:pos:R:3 gdb_38357=T pbc="F F F"
C       -0.13790000       1.37680000       0.28010000
C        1.35610000       1.74250000       0.04030000
C        1.62070000       0.21660000       0.16400000
N        0.15890000      -0.07340000       0.08640000
C       -0.29300000      -0.66750000      -1.16020000
C       -0.18130000       0.18150000      -2.43240000
O        1.15430000       0.60060000      -2.76170000
C        1.60710000       1.83000000      -2.36070000
N        1.68570000       2.36800000      -1.22300000
H       -0.47050000       1.57470000       1.30500000
H       -0.85620000       1.82560000      -0.41010000
H        1.80200000       2.35680000       0.82630000
H        2.23550000      -0.23490000      -0.61680000
H        2.02150000      -0.06450000       1.14470000
H        0.26660000      -1.59960000      -1.30140000
H       -1.35230000      -0.94810000      -1.06470000
H       -0.51430000      -0.41770000      -3.28660000
H       -0.82710000       1.06510000      -2.38010000
H        2.00500000       2.37420000      -3.22010000
