18
Properties=species:S:1:pos:R:3 gdb_88642=T pbc="F F F"
C        1.26630000       0.97980000      -0.44390000
C        0.12100000       0.20620000       0.16460000
N        0.24960000      -1.25010000       0.28350000
C        0.11690000      -0.44170000       1.51120000
C        1.26310000      -0.44420000       2.49980000
C        2.61260000      -1.08100000       2.12560000
C        3.15840000       0.32800000       2.34570000
O        4.20600000       0.88810000       2.31450000
O        1.93060000       0.86880000       2.64370000
H        2.23550000       0.53530000      -0.21410000
H        1.16190000       0.99820000      -1.53410000
H        1.27050000       2.01210000      -0.08300000
H       -0.85780000       0.58050000      -0.13610000
H       -0.62250000      -1.72460000       0.06910000
H       -0.85600000      -0.45770000       1.99860000
H        0.89840000      -0.74460000       3.48540000
H        3.00320000      -1.83090000       2.81500000
H        2.67730000      -1.44830000       1.10160000
