19
Properties=species:S:1:pos:R:3 gdb_73446=T pbc="F F F"
C       -0.07950000       1.54460000      -0.02700000
C       -0.02040000       0.05090000       0.03130000
C       -0.17470000      -1.04400000      -0.98640000
O        0.96860000      -1.77870000      -0.55270000
C        1.06790000      -0.88510000       0.61150000
C        0.44690000      -1.60100000       1.80810000
C       -1.01410000      -1.85670000       1.34230000
C       -1.18590000      -0.91540000       0.14740000
O       -2.44210000      -0.40100000      -0.16890000
H        0.76560000       1.96420000      -0.58340000
H       -1.00500000       1.86160000      -0.51600000
H       -0.07120000       1.98290000       0.97820000
H       -0.42720000      -1.03710000      -2.04210000
H        2.08510000      -0.50770000       0.73740000
H        0.98640000      -2.51990000       2.05260000
H        0.47540000      -0.94590000       2.68690000
H       -1.16850000      -2.90400000       1.06330000
H       -1.74730000      -1.60440000       2.11330000
H       -2.93620000      -1.07980000      -0.64130000
