20
Properties=species:S:1:pos:R:3 gdb_91889=T pbc="F F F"
C       -0.08180000       1.45420000       0.02350000
N       -0.00360000       0.00390000      -0.00210000
C        0.58950000      -0.48130000      -1.24360000
C        0.66770000      -2.00580000      -1.30750000
C        1.87820000      -2.71250000      -0.78680000
C        0.56760000      -2.79220000      -0.01100000
C        0.44350000      -2.03970000       1.26540000
O        0.14470000      -2.57440000       2.30960000
C        0.67770000      -0.53230000       1.17210000
H        0.90960000       1.94620000      -0.01340000
H       -0.66380000       1.80670000      -0.83430000
H       -0.58780000       1.78120000       0.93670000
H       -0.02850000      -0.11800000      -2.07130000
H        1.60110000      -0.05210000      -1.39510000
H        0.17310000      -2.45680000      -2.16070000
H        2.20880000      -3.62430000      -1.27050000
H        2.68020000      -2.11120000      -0.37070000
H        0.05840000      -3.74910000      -0.00880000
H        1.76830000      -0.31620000       1.16920000
H        0.26190000      -0.08670000       2.07850000
