23
Properties=species:S:1:pos:R:3 gdb_118772=T pbc="F F F"
C       -0.03200000       1.46760000      -0.24080000
C        0.04790000      -0.01540000       0.05340000
O       -1.09780000      -0.70570000      -0.38810000
C        1.36500000      -0.75530000      -0.01970000
C        0.66410000      -0.56780000       1.32360000
C        1.27980000       0.39600000       2.32560000
C        0.01100000      -1.79140000       1.95500000
C        1.00530000      -2.78710000       2.54620000
O        0.25650000      -3.88430000       3.05260000
H        0.86100000       2.00950000       0.07660000
H       -0.14140000       1.62730000      -1.32090000
H       -0.90350000       1.91190000       0.25080000
H       -1.08440000      -0.70680000      -1.35150000
H        1.34390000      -1.74650000      -0.46170000
H        2.27280000      -0.19200000      -0.21450000
H        1.80230000       1.22530000       1.84360000
H        0.51280000       0.81990000       2.98430000
H        2.01110000      -0.11540000       2.96010000
H       -0.67460000      -1.47340000       2.75080000
H       -0.59530000      -2.31410000       1.21330000
H        1.71110000      -3.11280000       1.76510000
H        1.60030000      -2.31910000       3.34610000
H        0.87160000      -4.51120000       3.44360000
