23
Properties=species:S:1:pos:R:3 gdb_97581=T pbc="F F F"
C       -0.65370000       1.18450000      -0.11820000
C        0.52090000       0.21610000       0.11020000
C        1.00030000      -0.41210000      -1.11680000
C        1.39950000      -0.92010000      -2.13490000
C        1.85420000      -1.55840000      -3.37310000
O        1.54000000      -2.95360000      -3.39240000
C        1.32720000      -0.82980000      -4.63860000
C        2.00320000      -1.40060000      -5.89070000
C       -0.20080000      -0.90230000      -4.74250000
H       -0.36620000       1.99020000      -0.79910000
H       -1.50920000       0.66260000      -0.55590000
H       -0.97060000       1.63030000       0.82930000
H        1.35100000       0.75200000       0.58830000
H        0.22090000      -0.56430000       0.82140000
H        2.95100000      -1.52390000      -3.40440000
H        0.64230000      -3.04930000      -3.05800000
H        1.61790000       0.22320000      -4.52710000
H        1.79680000      -2.47120000      -5.98050000
H        1.63750000      -0.90230000      -6.79390000
H        3.09020000      -1.27060000      -5.85150000
H       -0.53340000      -1.93800000      -4.87500000
H       -0.68140000      -0.49740000      -3.84680000
H       -0.55740000      -0.33250000      -5.60580000
