23
Properties=species:S:1:pos:R:3 gdb_100753=T pbc="F F F"
C        0.09730000       1.54290000       0.02200000
C       -0.01170000       0.02010000       0.04510000
O        0.67290000      -0.39170000       1.21950000
C       -1.47440000      -0.50250000       0.00920000
C       -2.24920000       0.06510000      -1.19290000
C       -1.52160000      -2.04420000       0.00670000
O       -0.90070000      -2.61610000       1.18340000
C       -2.92210000      -2.66110000      -0.10560000
O       -2.86050000      -4.06560000       0.00130000
H        1.13760000       1.81990000       0.21060000
H       -0.20030000       1.96660000      -0.93940000
H       -0.51790000       1.98820000       0.81130000
H        0.49980000      -0.37940000      -0.85050000
H        0.55670000      -1.34790000       1.29490000
H       -1.96080000      -0.15260000       0.93370000
H       -2.24020000       1.15650000      -1.18450000
H       -1.80830000      -0.26570000      -2.14070000
H       -3.29630000      -0.24610000      -1.18560000
H       -0.91320000      -2.42900000      -0.82120000
H       -1.31340000      -2.20460000       1.95400000
H       -3.57230000      -2.22110000       0.67450000
H       -3.37290000      -2.43300000      -1.07470000
H       -2.20790000      -4.24460000       0.69070000
