19
Properties=species:S:1:pos:R:3 gdb_42054=T pbc="F F F"
C       -0.08710000       1.54360000       0.01180000
C        1.28530000       2.26440000       0.10640000
C        2.12300000       2.02940000       1.34580000
C        2.99960000       1.01520000       1.49030000
C        3.02940000       0.03110000       0.46990000
C        2.65770000      -0.55030000      -0.52870000
C        1.74500000      -0.95460000      -1.53580000
C        0.44790000      -0.63120000      -1.36080000
C       -0.11410000      -0.00510000      -0.10180000
H       -0.68430000       1.81200000       0.89150000
H       -0.61370000       1.96660000      -0.85210000
H        1.88010000       2.00240000      -0.77430000
H        1.07930000       3.33930000       0.03810000
H        2.03390000       2.75330000       2.15310000
H        3.61680000       0.92670000       2.37830000
H        2.08410000      -1.45440000      -2.43740000
H       -0.25480000      -0.86790000      -2.15710000
H        0.40560000      -0.42900000       0.76330000
H       -1.16500000      -0.30680000      -0.01600000
