19
Properties=species:S:1:pos:R:3 gdb_112597=T pbc="F F F"
N       -0.58000000       1.02910000       0.46800000
C       -0.00930000      -0.22470000      -0.02420000
C        0.49810000      -1.11320000       1.15880000
C       -0.80920000      -1.94990000       1.07710000
C       -1.81720000      -1.65090000       2.17360000
O       -3.01900000      -2.33300000       1.84290000
C       -1.12680000      -1.28420000      -0.29050000
C        0.95060000      -0.02290000      -1.11860000
N        1.70240000       0.16590000      -1.97780000
H        0.16380000       1.65580000       0.76590000
H       -1.07350000       1.50240000      -0.28500000
H        1.39080000      -1.68440000       0.89960000
H        0.67970000      -0.56150000       2.08470000
H       -0.65840000      -3.03040000       1.02410000
H       -1.41420000      -1.99410000       3.14140000
H       -1.97480000      -0.56510000       2.24080000
H       -3.69650000      -2.07340000       2.47370000
H       -2.12970000      -0.86920000      -0.40630000
H       -0.89890000      -1.92380000      -1.14440000
