21
Properties=species:S:1:pos:R:3 gdb_99974=T pbc="F F F"
C       -0.06050000       1.58300000       0.08520000
C       -0.01990000       0.04580000       0.03520000
C        0.73210000      -0.50110000       1.26150000
C       -1.45370000      -0.51790000       0.02140000
O       -2.10120000      -0.11600000       1.22070000
C        0.68460000      -0.45440000      -1.26340000
N       -0.00890000      -0.01780000      -2.48060000
C        2.11610000      -0.07620000      -1.27570000
N        3.22590000       0.24270000      -1.34280000
H        0.94900000       2.00580000       0.08000000
H       -0.61720000       2.00180000      -0.76000000
H       -0.56630000       1.90600000       0.99710000
H        0.18780000      -0.24340000       2.17180000
H        0.81650000      -1.59330000       1.21910000
H        1.74150000      -0.08610000       1.32850000
H       -1.98380000      -0.14940000      -0.86450000
H       -1.40910000      -1.61800000      -0.04970000
H       -3.03120000      -0.34720000       1.15050000
H        0.64940000      -1.55090000      -1.25000000
H        0.13860000       0.97670000      -2.62460000
H        0.39120000      -0.48380000      -3.28930000
