18
Properties=species:S:1:pos:R:3 gdb_109189=T pbc="F F F"
C        0.38790000       0.68840000      -0.65680000
C       -0.34830000       0.31950000       0.64130000
C       -1.72570000      -0.20600000       0.39570000
N       -2.81600000       0.30880000       0.79340000
C       -3.89800000      -0.55360000       0.31760000
C       -3.17960000      -1.70110000      -0.47130000
O       -1.77510000      -1.35510000      -0.34470000
C       -3.42490000      -3.03720000       0.04860000
C       -3.66490000      -4.13080000       0.48430000
H        1.39400000       1.05280000      -0.43200000
H        0.47570000      -0.17860000      -1.31620000
H       -0.14490000       1.47620000      -1.19790000
H        0.22010000      -0.44990000       1.17750000
H       -0.44270000       1.18560000       1.29930000
H       -4.47610000      -0.94470000       1.15970000
H       -4.58230000       0.00920000      -0.32490000
H       -3.42150000      -1.67030000      -1.53890000
H       -3.86930000      -5.10070000       0.86630000
