17
Properties=species:S:1:pos:R:3 gdb_18978=T pbc="F F F"
C       -0.04300000       1.56390000       0.01020000
C        1.46190000       1.25190000      -0.00550000
C        1.10320000       0.16070000       1.02910000
C        1.98040000      -1.06910000       1.16540000
O        2.05690000      -1.82320000      -0.02730000
C        1.95810000      -1.05660000      -1.21040000
C        1.08370000       0.17160000      -1.04470000
N       -0.05340000       0.02700000       0.00220000
H       -0.47080000       1.99320000       0.92100000
H       -0.48770000       2.00270000      -0.88770000
H        2.31660000       1.93890000      -0.00990000
H        0.76010000       0.51280000       2.00760000
H        2.98280000      -0.75410000       1.50680000
H        1.57100000      -1.74420000       1.92470000
H        2.95410000      -0.73780000      -1.56710000
H        1.53460000      -1.72360000      -1.96900000
H        0.72250000       0.53400000      -2.01280000
