25
Properties=species:S:1:pos:R:3 gdb_96477=T pbc="F F F"
C       -0.00830000       1.60950000      -0.04100000
C        0.05890000       0.07550000       0.01290000
C        0.72670000      -0.48870000      -1.26710000
C        0.27340000      -1.90480000      -1.65440000
C        0.58990000      -3.02700000      -0.65510000
C       -0.03670000      -2.83550000       0.74190000
C        0.64800000      -1.77790000       1.57440000
C        0.72460000      -0.47710000       1.27430000
C        1.50910000       0.46100000       2.15790000
H        0.98760000       2.05990000      -0.10860000
H       -0.57250000       1.92800000      -0.92330000
H       -0.50670000       2.02900000       0.83800000
H       -0.98030000      -0.28620000       0.01050000
H        0.48970000       0.17730000      -2.10670000
H        1.81760000      -0.45870000      -1.14900000
H       -0.81350000      -1.88370000      -1.82100000
H        0.71970000      -2.16240000      -2.62310000
H        0.22740000      -3.97170000      -1.07950000
H        1.67680000      -3.13250000      -0.54490000
H       -1.10460000      -2.59950000       0.61810000
H       -0.00140000      -3.78850000       1.27970000
H        1.15120000      -2.12730000       2.47390000
H        1.95840000      -0.07940000       2.99500000
H        2.31910000       0.95530000       1.60620000
H        0.88530000       1.26230000       2.57110000
