19
Properties=species:S:1:pos:R:3 gdb_7634=T pbc="F F F"
C        0.23640000       1.50510000      -0.28920000
C        0.02490000       0.01210000      -0.02510000
C        0.72600000      -0.42270000       1.26440000
N       -1.40250000      -0.27560000       0.06760000
C       -1.82280000      -1.69320000       0.18820000
C       -2.91580000      -1.39660000      -0.84660000
O       -3.88780000      -1.96330000      -1.24350000
C       -2.24000000      -0.05010000      -1.13590000
H        1.30380000       1.73060000      -0.37040000
H       -0.24220000       1.82280000      -1.22050000
H       -0.18380000       2.09870000       0.52900000
H        0.47170000      -0.55500000      -0.86970000
H        0.31790000       0.12310000       2.12110000
H        0.59990000      -1.49340000       1.45190000
H        1.79930000      -0.22040000       1.20190000
H       -1.09460000      -2.42210000      -0.20770000
H       -2.14110000      -2.01520000       1.18470000
H       -2.86780000       0.84640000      -1.12130000
H       -1.68810000      -0.08490000      -2.09110000
