15
Properties=species:S:1:pos:R:3 gdb_42717=T pbc="F F F"
O        0.00270000       0.07850000       0.11580000
C       -0.01540000       1.25940000      -0.00870000
C       -1.19060000       2.29340000      -0.00770000
C       -0.69690000       3.08110000       1.19470000
C        0.64910000       3.09970000       1.17570000
C        1.13020000       2.32560000      -0.04060000
C        0.67150000       3.09830000      -1.29120000
O       -0.06130000       2.29550000      -2.23650000
C       -0.78910000       3.07800000      -1.27050000
H       -2.20320000       1.89750000       0.02830000
H       -1.34330000       3.50210000       1.95300000
H        1.30480000       3.53890000       1.91550000
H        2.15400000       1.95800000      -0.03330000
H        1.26380000       3.90780000      -1.70480000
H       -1.41500000       3.87060000      -1.66690000
