17
Properties=species:S:1:pos:R:3 gdb_43696=T pbc="F F F"
O        0.17030000       0.22010000      -0.92410000
C       -0.00860000       1.19620000      -0.27250000
C       -1.18330000       2.06430000       0.18070000
C       -0.09020000       2.89470000       0.87880000
C       -0.08940000       2.95140000       2.39200000
C        1.23810000       3.49970000       2.95490000
C        1.24550000       3.56290000       4.41050000
C        1.22360000       3.60560000       5.61120000
O        0.93500000       1.96560000       0.36380000
H       -1.72220000       2.54980000      -0.63420000
H       -1.89090000       1.55580000       0.83850000
H        0.07880000       3.88170000       0.43720000
H       -0.92110000       3.58590000       2.71970000
H       -0.27050000       1.94900000       2.79510000
H        2.05980000       2.86480000       2.60340000
H        1.42510000       4.50030000       2.54270000
H        1.22010000       3.64700000       6.67220000
