17
Properties=species:S:1:pos:R:3 gdb_33351=T pbc="F F F"
C       -0.04190000      -3.82040000      -0.09900000
C       -0.02100000      -2.61310000      -0.07050000
C        0.00220000      -1.25300000      -0.03970000
C        0.02530000      -0.04270000      -0.00610000
C        0.05260000       1.41180000       0.03140000
C       -0.61920000       2.02540000       1.30310000
C        0.20650000       3.29410000       1.62620000
C        1.52270000       3.03080000       0.93430000
C        1.45160000       2.01640000       0.07770000
H       -0.05960000      -4.88150000      -0.12270000
H       -0.46040000       1.77740000      -0.87260000
H       -1.68210000       2.22300000       1.14980000
H       -0.52930000       1.30750000       2.12230000
H       -0.26470000       4.20220000       1.22430000
H        0.31380000       3.45580000       2.70440000
H        2.40390000       3.64050000       1.10120000
H        2.24860000       1.65330000      -0.55960000
