19
Properties=species:S:1:pos:R:3 gdb_80659=T pbc="F F F"
C       -0.39410000       1.43260000       0.06160000
C        0.06340000      -0.02270000      -0.02760000
N        0.74080000      -0.30150000      -1.31210000
C        1.23590000      -1.72760000      -1.25130000
C        2.44750000      -1.21650000      -0.45770000
C        2.18950000       0.11570000      -1.17730000
O        2.09220000      -1.08190000       0.92800000
C        0.91590000      -0.42880000       1.19020000
N        0.53510000      -0.19100000       2.37180000
H        0.45360000       2.12320000       0.00980000
H       -1.06980000       1.65560000      -0.76780000
H       -0.90470000       1.59950000       1.01120000
H       -0.82960000      -0.65920000      -0.00480000
H        0.56980000      -2.44020000      -0.75740000
H        1.48900000      -2.08260000      -2.25410000
H        3.41670000      -1.71850000      -0.47820000
H        2.65350000       0.17780000      -2.16490000
H        2.37620000       1.03610000      -0.61910000
H        1.21720000      -0.54590000       3.04560000
