20
Properties=species:S:1:pos:R:3 gdb_107153=T pbc="F F F"
C       -0.29570000       1.32220000      -0.09740000
O        0.15460000      -0.01090000       0.08100000
C        0.78760000      -0.52440000      -1.02780000
C        0.03280000      -1.07160000      -2.20620000
C        0.91850000      -1.99790000      -1.38440000
C        2.36590000      -1.75890000      -1.75540000
C        3.49970000      -2.68070000      -1.55840000
N        3.08160000      -2.27530000      -2.92070000
C        2.26410000      -0.26340000      -1.38390000
H        0.53950000       2.01110000      -0.28690000
H       -1.00680000       1.39680000      -0.93180000
H       -0.79420000       1.61650000       0.82880000
H       -1.02920000      -1.20680000      -2.02660000
H        0.29770000      -0.81450000      -3.22890000
H        0.51950000      -2.86690000      -0.87470000
H        4.46850000      -2.29880000      -1.24630000
H        3.28510000      -3.69370000      -1.22510000
H        2.54440000      -3.02330000      -3.35430000
H        2.46960000       0.45320000      -2.18420000
H        2.85860000      -0.01530000      -0.50060000
