20
Properties=species:S:1:pos:R:3 gdb_40278=T pbc="F F F"
C       -0.55520000       1.51810000      -0.00320000
N        0.89520000       1.35800000       0.15740000
C        0.02730000       0.14520000       0.04220000
C       -0.10630000      -0.63100000       1.33760000
C        0.84600000      -1.81680000       1.48240000
O        0.41550000      -2.92800000       0.71440000
C        0.86740000      -2.96090000      -0.61620000
C        0.47580000      -1.82680000      -1.52700000
C        0.12470000      -0.56690000      -1.25750000
H       -1.07110000       1.90440000       0.87210000
H       -0.94520000       1.88050000      -0.95100000
H        1.36130000       1.52750000      -0.73170000
H        0.06120000       0.06930000       2.16270000
H       -1.12770000      -1.01930000       1.43080000
H        1.87710000      -1.53190000       1.22160000
H        0.84790000      -2.15640000       2.52360000
H        1.97120000      -3.05350000      -0.64500000
H        0.47350000      -3.89630000      -1.03130000
H        0.54560000      -2.09930000      -2.57980000
H       -0.06830000       0.07630000      -2.11620000
