16
Properties=species:S:1:pos:R:3 gdb_124717=T pbc="F F F"
C        0.08880000       1.45780000      -0.14890000
C        0.01930000      -0.01160000       0.18100000
N        0.83040000      -0.42370000       1.18720000
N       -0.79050000      -0.75630000      -0.50280000
C       -0.91530000      -2.10570000      -0.26510000
N       -0.26520000      -2.84970000       0.65530000
N       -0.74980000      -4.07560000       0.46430000
N       -1.65580000      -4.21030000      -0.49340000
C       -1.77940000      -2.97700000      -0.97190000
H        1.10560000       1.74360000      -0.44180000
H       -0.59450000       1.67560000      -0.96780000
H       -0.18580000       2.06550000       0.72100000
H        1.42630000       0.23070000       1.66160000
H        0.82900000      -1.39820000       1.45600000
H       -0.44370000      -4.85880000       1.01690000
H       -2.45550000      -2.74560000      -1.77830000
