17
Properties=species:S:1:pos:R:3 gdb_65755=T pbc="F F F"
C       -0.02220000       1.64700000       0.00430000
C       -0.02740000       0.12660000      -0.00070000
C        0.76900000      -0.57670000      -1.12120000
O        1.71010000      -1.10520000      -0.13070000
C        1.00360000      -0.55080000       0.90790000
N        1.17260000      -0.59870000       2.14880000
O       -1.34780000      -0.39650000       0.06660000
C       -1.98190000      -0.34610000       1.26840000
N       -3.20520000      -0.64730000       1.32060000
H        0.99160000       2.03340000      -0.13240000
H       -0.65960000       2.02130000      -0.80200000
H       -0.40300000       2.02600000       0.95670000
H        0.22320000      -1.38000000      -1.61750000
H        1.27830000       0.06780000      -1.84010000
H        1.97930000      -1.17060000       2.40520000
H       -1.32930000      -0.06770000       2.10110000
H       -3.52970000      -0.59290000       2.28430000
