22
Properties=species:S:1:pos:R:3 gdb_117369=T pbc="F F F"
C       -0.03280000       1.40900000      -0.11920000
C        0.02370000      -0.05240000       0.28560000
O       -1.24140000      -0.64190000      -0.04890000
C       -1.39230000      -1.95350000       0.22610000
N       -0.45380000      -2.63630000       0.74030000
C       -2.79080000      -2.39840000      -0.16250000
C       -2.99100000      -3.89550000      -0.16730000
C       -3.33030000      -4.63090000       1.10990000
C       -4.36860000      -4.47430000       0.02820000
H        0.91650000       1.89860000       0.11810000
H       -0.21340000       1.50990000      -1.19340000
H       -0.83270000       1.93200000       0.41300000
H        0.82000000      -0.59310000      -0.23660000
H        0.20460000      -0.17550000       1.35880000
H       -0.75980000      -3.59670000       0.88130000
H       -3.49820000      -1.92480000       0.53120000
H       -3.01620000      -1.97150000      -1.14700000
H       -2.35020000      -4.42860000      -0.86480000
H       -2.90050000      -5.61300000       1.27330000
H       -3.44780000      -4.04290000       2.01430000
H       -5.18680000      -3.78430000       0.20680000
H       -4.64490000      -5.34810000      -0.55090000
