14
Properties=species:S:1:pos:R:3 gdb_2539=T pbc="F F F"
C        0.12950000       1.24300000      -0.16010000
O       -0.14390000      -0.11100000       0.16610000
C        0.61520000      -0.63120000       1.23540000
C        0.07320000      -2.04640000       1.48610000
O        0.19080000      -2.85510000       0.34450000
C        2.06060000      -0.65060000       0.91660000
N        3.19010000      -0.63300000       0.67440000
H        1.16810000       1.37660000      -0.48800000
H       -0.54440000       1.50950000      -0.97600000
H       -0.06260000       1.90320000       0.69750000
H        0.48320000      -0.02130000       2.14430000
H        0.64220000      -2.52350000       2.28890000
H       -0.97120000      -1.93580000       1.81560000
H       -0.21730000      -2.36960000      -0.38230000
