18
Properties=species:S:1:pos:R:3 gdb_47684=T pbc="F F F"
N       -0.11890000       1.21470000      -0.72870000
C       -0.03800000       0.10320000      -0.10970000
C       -1.32750000      -0.67370000       0.12750000
N       -1.64270000      -1.14080000       1.46480000
C       -0.78300000      -2.18710000       1.98930000
C        0.65940000      -1.77980000       2.33250000
C        1.60120000      -1.40150000       1.20140000
O        2.74910000      -1.79560000       1.17430000
N        1.19040000      -0.49030000       0.23140000
H        0.80260000       1.63280000      -0.88220000
H       -2.12700000      -0.01950000      -0.22540000
H       -1.30370000      -1.55230000      -0.53220000
H       -1.70960000      -0.36330000       2.11320000
H       -1.24270000      -2.57940000       2.90340000
H       -0.77700000      -3.01210000       1.26600000
H        0.62590000      -0.91840000       3.01540000
H        1.16500000      -2.58830000       2.86660000
H        1.98760000      -0.15960000      -0.29940000
