23
Properties=species:S:1:pos:R:3 gdb_59021=T pbc="F F F"
C        0.08630000       1.51230000      -0.11170000
C        0.01950000      -0.01690000      -0.01740000
O        0.72760000      -0.48910000       1.13320000
C       -1.39370000      -0.53760000      -0.04180000
C       -1.97810000      -1.21510000      -1.03150000
C       -3.39310000      -1.61950000      -0.70090000
C       -3.72110000      -0.76840000       0.55620000
C       -4.67240000      -1.43580000       1.54730000
C       -2.33340000      -0.39650000       1.14210000
H        1.12820000       1.84290000      -0.07400000
H       -0.36500000       1.86650000      -1.04340000
H       -0.45230000       1.98250000       0.71990000
H        0.56320000      -0.44430000      -0.86720000
H        0.35780000      -0.04600000       1.90450000
H       -1.48890000      -1.49120000      -1.96050000
H       -4.10030000      -1.44220000      -1.51960000
H       -3.44620000      -2.69660000      -0.47900000
H       -4.18150000       0.16300000       0.20340000
H       -4.24910000      -2.37360000       1.92560000
H       -4.87170000      -0.78910000       2.40880000
H       -5.63480000      -1.67040000       1.07960000
H       -2.03830000      -1.09470000       1.93980000
H       -2.33290000       0.60430000       1.59200000
