19
Properties=species:S:1:pos:R:3 gdb_37040=T pbc="F F F"
C       -0.04400000       1.56670000      -0.03520000
C        1.53110000       1.60990000      -0.05010000
C        1.52140000       0.08960000       0.18160000
C        2.37690000      -0.84240000       0.98290000
C        1.52270000      -1.90770000       1.63880000
C        0.18890000      -1.94440000       1.65120000
C       -0.73460000      -0.92790000       1.01180000
C        0.05340000       0.04920000       0.19520000
O        0.79250000      -0.48700000      -0.91310000
H       -0.46590000       2.10860000       0.81510000
H       -0.55750000       1.86920000      -0.95090000
H        2.01000000       1.93970000      -0.97520000
H        1.93860000       2.17470000       0.79240000
H        3.15240000      -1.31000000       0.36080000
H        2.91650000      -0.27390000       1.75380000
H        2.07000000      -2.70200000       2.14070000
H       -0.30450000      -2.76730000       2.16270000
H       -1.49460000      -1.43780000       0.40400000
H       -1.29010000      -0.38960000       1.79280000
