21
Properties=species:S:1:pos:R:3 gdb_105750=T pbc="F F F"
C        0.01170000       1.42660000      -0.17450000
C        0.20300000      -0.07240000       0.06600000
C        0.70760000      -0.46520000       1.48180000
C        0.83800000      -2.02470000       1.58250000
C        2.35640000      -2.28790000       1.43320000
O        2.94000000      -1.05560000       1.02750000
C        2.19410000      -0.04410000       1.67210000
C       -0.15350000       0.08560000       2.52210000
C       -0.85510000       0.54260000       3.38590000
H        0.94940000       1.98280000      -0.07560000
H       -0.36500000       1.60270000      -1.18660000
H       -0.70570000       1.85090000       0.53350000
H       -0.74800000      -0.58890000      -0.10720000
H        0.92210000      -0.48090000      -0.65340000
H        0.46180000      -2.38850000       2.53980000
H        0.25700000      -2.50530000       0.79200000
H        2.78820000      -2.61360000       2.39200000
H        2.60040000      -3.03730000       0.67620000
H        2.44090000       0.91240000       1.20780000
H        2.43360000       0.01020000       2.74570000
H       -1.47460000       0.94420000       4.14910000
