21
Properties=species:S:1:pos:R:3 gdb_79750=T pbc="F F F"
C       -0.36420000       1.45220000      -0.08070000
N        0.10220000       0.07670000       0.02140000
C        1.41170000      -0.45390000      -0.31170000
C        2.68170000       0.37540000      -0.32040000
N        2.53030000       1.81700000      -0.01870000
C        2.92800000       0.88500000       1.05430000
C        1.79290000       0.40890000       1.96160000
C        0.87780000      -0.49480000       1.10490000
C        0.29530000      -1.72110000       1.77290000
H       -0.32290000       1.76480000      -1.12790000
H       -1.41450000       1.47080000       0.23420000
H        0.20260000       2.18250000       0.50130000
H        1.40330000      -1.32390000      -0.96700000
H        3.48870000       0.06070000      -0.97410000
H        3.35500000       2.31300000      -0.34900000
H        3.92820000       0.97810000       1.46660000
H        2.20940000      -0.18700000       2.78040000
H        1.25120000       1.24490000       2.41800000
H       -0.37210000      -1.44150000       2.59740000
H       -0.28900000      -2.29820000       1.05230000
H        1.08210000      -2.36240000       2.18660000
