17
Properties=species:S:1:pos:R:3 gdb_36550=T pbc="F F F"
N        0.66790000      -0.56450000      -1.15360000
C        0.47830000       0.30000000      -0.41000000
C        0.27620000       1.44000000       0.50480000
N        0.99770000       2.65940000       0.20290000
C        1.76200000       2.70240000      -0.80030000
O        2.43010000       3.83630000      -1.07390000
C        3.22600000       3.80590000      -2.24090000
C        4.42890000       4.68720000      -2.22070000
C        4.59200000       3.18180000      -2.17100000
H       -0.79760000       1.66270000       0.53570000
H        0.54200000       1.11220000       1.51760000
H        1.94690000       1.87810000      -1.49960000
H        2.64680000       3.71920000      -3.15630000
H        4.69080000       5.21710000      -3.12890000
H        4.60760000       5.23450000      -1.30270000
H        4.88650000       2.74820000      -1.22220000
H        4.96350000       2.66100000      -3.04620000
