17
Properties=species:S:1:pos:R:3 gdb_124996=T pbc="F F F"
C        0.19000000       1.54290000       0.15720000
C       -0.02350000       0.07160000       0.08870000
C       -1.13700000      -0.70780000       0.00610000
C       -2.58590000      -0.36120000      -0.06730000
O       -3.24020000      -1.02400000      -1.15680000
C       -0.60430000      -2.04110000      -0.00670000
N       -1.36570000      -3.19050000      -0.03420000
N        0.70750000      -2.05410000       0.05520000
O        1.07760000      -0.69520000       0.13110000
H        0.93040000       1.86010000      -0.58360000
H       -0.74410000       2.07710000      -0.02900000
H        0.56300000       1.84030000       1.14330000
H       -3.11980000      -0.71020000       0.82350000
H       -2.72550000       0.72780000      -0.12410000
H       -2.77860000      -0.76880000      -1.96340000
H       -2.22220000      -3.07970000      -0.56100000
H       -0.84730000      -4.02400000      -0.27320000
