23
Properties=species:S:1:pos:R:3 gdb_103981=T pbc="F F F"
C       -0.11590000       1.54770000       0.06660000
C        0.04430000       0.05160000       0.01210000
C       -0.77410000      -0.85400000       0.89640000
C        0.72490000      -0.91470000       0.98910000
C        1.26180000      -1.75770000      -0.17000000
C        0.61850000      -0.74800000      -1.19030000
C       -0.37420000      -1.30560000      -2.20940000
C        1.71540000       0.04660000      -1.89600000
O        2.43720000      -0.84170000      -2.74030000
H        0.78930000       2.07710000      -0.25060000
H       -0.93900000       1.88600000      -0.57540000
H       -0.34520000       1.87450000       1.08640000
H       -1.27710000      -0.34640000       1.71430000
H       -1.33190000      -1.69740000       0.49610000
H        1.25230000      -0.69270000       1.90990000
H        2.34950000      -1.78600000      -0.25380000
H        0.88530000      -2.78520000      -0.21350000
H       -1.14170000      -1.92120000      -1.73280000
H       -0.88170000      -0.49410000      -2.74520000
H        0.14610000      -1.91990000      -2.94930000
H        1.26580000       0.86550000      -2.48110000
H        2.38160000       0.50150000      -1.14570000
H        3.11830000      -0.33780000      -3.19420000
