14
Properties=species:S:1:pos:R:3 gdb_3496=T pbc="F F F"
C       -0.07250000      -1.25500000      -0.11060000
C       -0.02740000      -0.05610000      -0.02590000
C       -0.02260000       1.38830000       0.05430000
C        0.02690000       2.12270000       1.42530000
C        1.49550000       1.65470000       1.48100000
N        1.36220000       2.10790000       0.01090000
C        0.58630000       3.30000000       0.60440000
H       -0.10350000      -2.31390000      -0.18510000
H       -0.70970000       1.81280000      -0.68460000
H       -0.73480000       2.12090000       2.21200000
H        2.20260000       2.26160000       2.05170000
H        1.69660000       0.58860000       1.59290000
H       -0.07280000       3.79610000      -0.11370000
H        1.23270000       4.01660000       1.11590000
