19
Properties=species:S:1:pos:R:3 gdb_73607=T pbc="F F F"
O       -0.06820000       1.42170000       0.17030000
C       -0.02710000       0.04490000      -0.04200000
C        0.83440000      -0.48450000      -1.17980000
C        0.19910000      -1.83520000      -1.58970000
C       -1.27680000      -1.77520000      -1.11110000
C       -1.30240000      -0.73600000      -0.00300000
C       -0.30400000      -0.86170000       1.16010000
C        0.42850000      -2.04810000       1.48330000
C        1.04730000      -3.03320000       1.79510000
H        0.78360000       1.69460000       0.52910000
H        0.77330000       0.24970000      -1.99100000
H        1.89030000      -0.59080000      -0.90780000
H        0.27140000      -2.00790000      -2.66660000
H        0.71790000      -2.65650000      -1.09380000
H       -1.93610000      -1.43590000      -1.91820000
H       -1.64040000      -2.75530000      -0.78680000
H       -2.23470000      -0.23900000       0.24040000
H       -0.61620000      -0.28400000       2.02660000
H        1.59060000      -3.90410000       2.06550000
