18
Properties=species:S:1:pos:R:3 gdb_15382=T pbc="F F F"
C        0.06450000       1.52490000       0.10780000
C       -0.04200000      -0.00040000       0.17510000
C       -1.39530000      -0.52350000      -0.32490000
C       -1.48970000      -2.02800000      -0.24390000
N       -1.81410000      -2.60340000       1.06290000
C       -2.78430000      -2.75690000      -0.04180000
C       -4.03920000      -2.05640000       0.09320000
N       -5.05120000      -1.50230000       0.16810000
H        1.03620000       1.87140000       0.47230000
H       -0.05480000       1.88660000      -0.91960000
H       -0.71050000       2.00130000       0.71770000
H        0.76540000      -0.45240000      -0.41660000
H        0.10430000      -0.33940000       1.20770000
H       -2.20540000      -0.08370000       0.26650000
H       -1.55680000      -0.21320000      -1.36560000
H       -0.76840000      -2.56890000      -0.85700000
H       -1.33530000      -3.48730000       1.21350000
H       -2.88270000      -3.73160000      -0.51230000
