15
Properties=species:S:1:pos:R:3 gdb_18669=T pbc="F F F"
N       -0.12240000       1.27710000       0.08520000
C       -0.02280000       0.02210000      -0.04040000
O        1.17800000      -0.62570000      -0.07580000
C        1.25140000      -1.80540000      -0.89260000
C        0.25310000      -2.88150000      -0.47340000
C       -1.13030000      -2.28370000      -0.28160000
O       -1.38050000      -1.74830000       1.01390000
C       -1.25140000      -0.82630000      -0.07960000
H        0.80830000       1.70090000       0.10620000
H        1.08340000      -1.51900000      -1.93980000
H        2.28190000      -2.15380000      -0.79840000
H        0.23200000      -3.66280000      -1.24030000
H        0.56220000      -3.34750000       0.46750000
H       -1.97520000      -2.81590000      -0.71650000
H       -2.15760000      -0.28890000      -0.34240000
