22
Properties=species:S:1:pos:R:3 gdb_117347=T pbc="F F F"
C        0.03400000       1.51050000       0.20120000
C        0.03840000       0.00480000       0.01540000
O        0.67560000      -0.57070000       1.16720000
C        0.76200000      -1.92690000       1.15990000
O        0.33450000      -2.63620000       0.27400000
N        1.41100000      -2.35700000       2.27550000
C        1.52080000      -3.77340000       2.60970000
C        2.81380000      -4.01220000       3.39210000
C        0.28310000      -4.27870000       3.36390000
H        1.05380000       1.89640000       0.28810000
H       -0.44400000       1.98990000      -0.65830000
H       -0.51740000       1.79150000       1.10320000
H       -0.97590000      -0.39730000      -0.07390000
H        0.58630000      -0.29190000      -0.88490000
H        1.60850000      -1.66890000       2.98490000
H        1.57570000      -4.29480000       1.64970000
H        2.80000000      -3.47430000       4.34820000
H        2.93530000      -5.07580000       3.61600000
H        3.68500000      -3.67540000       2.82350000
H       -0.61810000      -4.10570000       2.77010000
H        0.36190000      -5.35230000       3.56380000
H        0.17140000      -3.76250000       4.32440000
