14
Properties=species:S:1:pos:R:3 gdb_113611=T pbc="F F F"
O       -0.06430000       1.45570000      -0.36010000
C       -0.01890000       0.21170000       0.31170000
C       -1.35080000      -0.49170000       0.22510000
O       -1.64770000      -1.11270000      -1.02840000
C       -1.49060000      -1.96390000       0.11560000
C       -0.36160000      -2.85150000       0.12800000
C        0.55680000      -3.63680000       0.15390000
C        1.60190000      -4.51410000       0.18280000
N        2.49220000      -5.25990000       0.20950000
H       -0.21920000       1.27350000      -1.29370000
H        0.77080000      -0.44340000      -0.08080000
H        0.21290000       0.43300000       1.35890000
H       -2.19300000       0.04770000       0.66030000
H       -2.41750000      -2.41110000       0.47370000
