21
Properties=species:S:1:pos:R:3 gdb_118277=T pbc="F F F"
C       -0.21640000       1.57920000       0.81160000
O       -0.18960000       0.19310000       1.05350000
C        0.61500000      -0.50920000       0.13380000
C        0.55570000      -1.99620000       0.47940000
C       -0.86000000      -2.55910000       0.35970000
O        1.47460000      -2.61370000      -0.41520000
C        1.86930000      -3.91780000      -0.03650000
C        2.92330000      -4.39040000      -0.92570000
C        3.79040000      -4.80680000      -1.64440000
H       -0.62350000       1.81190000      -0.18510000
H       -0.85880000       2.03210000       1.57070000
H        0.78810000       2.02530000       0.88300000
H        0.26150000      -0.35660000      -0.89990000
H        1.66130000      -0.16960000       0.17970000
H        0.91190000      -2.11690000       1.51600000
H       -1.19360000      -2.51490000      -0.68230000
H       -0.91880000      -3.59750000       0.69820000
H       -1.54030000      -1.96210000       0.97170000
H        2.23550000      -3.92050000       1.00460000
H        1.02240000      -4.62090000      -0.07480000
H        4.55780000      -5.16890000      -2.28280000
