18
Properties=species:S:1:pos:R:3 gdb_15989=T pbc="F F F"
C        0.09800000       1.57010000       0.03650000
C       -0.26350000       0.10210000      -0.21050000
C        0.66850000      -0.55970000      -1.20940000
O        2.04600000      -0.61850000      -0.74180000
C        2.14000000      -2.04180000      -0.96840000
C        0.66520000      -2.08300000      -1.34740000
C       -0.37610000      -3.07880000      -1.10830000
O        0.12200000      -2.80200000      -2.42960000
H        1.12620000       1.65310000       0.39920000
H        0.01760000       2.15760000      -0.88470000
H       -0.56560000       2.02000000       0.78060000
H       -0.22640000      -0.45900000       0.73110000
H       -1.28970000       0.02190000      -0.59300000
H        0.61370000      -0.05640000      -2.18640000
H        2.81840000      -2.29220000      -1.79420000
H        2.44270000      -2.58730000      -0.06680000
H       -0.10890000      -4.05470000      -0.70470000
H       -1.40130000      -2.76280000      -0.92220000
