16
Properties=species:S:1:pos:R:3 gdb_15574=T pbc="F F F"
O       -0.04270000       1.44360000       0.06490000
C        0.03040000       0.03250000       0.01940000
C       -1.38710000      -0.57620000      -0.02960000
C       -1.29120000      -1.79110000      -0.98870000
C       -0.04730000      -1.50420000      -1.78640000
C        0.67140000      -0.50900000      -1.24960000
C        1.93060000       0.01840000      -1.76350000
O        2.52260000       0.95040000      -1.25060000
H        0.86110000       1.76100000      -0.06790000
H        0.59140000      -0.34550000       0.89160000
H       -1.77350000      -0.83890000       0.95690000
H       -2.04340000       0.18800000      -0.45600000
H       -1.17390000      -2.73820000      -0.44300000
H       -2.17670000      -1.91620000      -1.62130000
H        0.23080000      -2.06210000      -2.67620000
H        2.33170000      -0.47730000      -2.67330000
