17
Properties=species:S:1:pos:R:3 gdb_25564=T pbc="F F F"
O       -0.17410000      -0.07250000      -0.38150000
C        0.00610000       1.08130000      -0.09050000
C        1.33530000       1.79710000      -0.16900000
C        1.26660000       3.01850000      -1.11980000
C        2.52330000       3.82340000      -1.14960000
C        2.82980000       5.07740000      -0.68420000
N        4.14630000       5.39410000      -0.93060000
C        4.64230000       4.34460000      -1.54060000
N        3.70650000       3.36340000      -1.69850000
H       -0.83780000       1.72260000       0.25890000
H        1.59510000       2.15290000       0.83670000
H        2.09760000       1.07990000      -0.48650000
H        1.00640000       2.67020000      -2.12820000
H        0.45150000       3.67800000      -0.80310000
H        2.16770000       5.77130000      -0.18740000
H        5.65760000       4.23270000      -1.89120000
H        3.84690000       2.47230000      -2.14500000
