15
Properties=species:S:1:pos:R:3 gdb_27006=T pbc="F F F"
O       -0.86240000       1.25350000       0.36540000
C       -0.31730000       0.03260000       0.15140000
C        0.20320000      -0.42370000      -1.03370000
C        0.31340000       0.19980000      -2.39410000
C        1.39650000      -0.36950000      -3.19320000
C        2.27470000      -0.88390000      -3.83340000
N        0.61260000      -1.71500000      -0.73810000
C        0.33920000      -1.94950000       0.56740000
N       -0.23490000      -0.90550000       1.13740000
H       -1.10970000       1.27870000       1.29750000
H       -0.62760000       0.09570000      -2.95530000
H        0.46570000       1.27890000      -2.27230000
H        3.05780000      -1.30480000      -4.41430000
H        1.10110000      -2.31720000      -1.38100000
H        0.57670000      -2.88220000       1.05480000
