19
Properties=species:S:1:pos:R:3 gdb_32831=T pbc="F F F"
C       -0.12100000       1.51310000      -0.04840000
C       -0.04730000       0.02090000      -0.03120000
C        0.05470000      -0.84250000      -1.09100000
N        0.08310000      -2.10630000      -0.53670000
C       -0.00650000      -1.96360000       0.81840000
C        0.04240000      -3.11390000       1.77080000
C        1.42980000      -3.27900000       2.41990000
O        1.48190000      -4.37910000       3.31070000
N       -0.08320000      -0.69170000       1.15040000
H        0.70930000       1.95600000       0.51260000
H       -0.08450000       1.89780000      -1.07140000
H       -1.04690000       1.86760000       0.41730000
H        0.10010000      -0.68460000      -2.15580000
H        0.14270000      -2.97510000      -1.04050000
H       -0.69930000      -2.94360000       2.55950000
H       -0.22620000      -4.04930000       1.26730000
H        2.17880000      -3.48260000       1.64720000
H        1.71130000      -2.33610000       2.90880000
H        0.93440000      -4.16670000       4.07330000
