18
Properties=species:S:1:pos:R:3 gdb_34740=T pbc="F F F"
C       -0.19980000      -1.27880000      -0.19460000
C       -0.09060000      -0.08880000      -0.05440000
C       -0.00080000       1.35510000       0.08620000
C       -0.25170000       2.03150000       1.43310000
C        0.98660000       1.93070000       2.31940000
C        2.01900000       0.84120000       2.04550000
C        2.41750000       1.14950000       0.57070000
N        1.36940000       2.03450000       0.01820000
C        0.95870000       2.89350000       1.17130000
H       -0.29450000      -2.33010000      -0.31260000
H       -0.62080000       1.81810000      -0.68950000
H       -1.22220000       2.30760000       1.82820000
H        0.85100000       2.31310000       3.32510000
H        2.87060000       0.92880000       2.72770000
H        1.60580000      -0.16440000       2.15640000
H        3.36220000       1.70130000       0.53220000
H        2.51690000       0.25560000      -0.04820000
H        1.11530000       3.96390000       1.17890000
