20
Properties=species:S:1:pos:R:3 gdb_115484=T pbc="F F F"
C        0.02620000       1.54210000      -0.07730000
C        0.09740000       0.01600000       0.00000000
C        0.78930000      -0.49280000       1.26930000
C        0.84450000      -2.04380000       1.37410000
O        2.25250000      -2.34680000       1.53170000
C        2.88850000      -1.15610000       1.45980000
C        4.38420000      -1.17860000       1.55610000
O        4.92220000       0.11420000       1.47330000
N        2.20840000      -0.09310000       1.32290000
H        1.02810000       1.97720000      -0.04190000
H       -0.45840000       1.86650000      -1.00290000
H       -0.54680000       1.95320000       0.76140000
H       -0.91430000      -0.40960000      -0.03480000
H        0.63500000      -0.38120000      -0.87050000
H        0.27900000      -0.06250000       2.14080000
H        0.31080000      -2.44880000       2.23710000
H        0.48870000      -2.54360000       0.46710000
H        4.66300000      -1.66460000       2.50430000
H        4.77560000      -1.82070000       0.75180000
H        4.16480000       0.71160000       1.38750000
