12
Properties=species:S:1:pos:R:3 gdb_129132=T pbc="F F F"
N       -0.09200000       1.28140000      -0.17940000
C       -0.00480000       0.02380000      -0.00990000
N        1.19870000      -0.66970000       0.19140000
C        1.11880000      -1.92950000       0.34540000
O        0.01440000      -2.69770000       0.34080000
N       -1.23830000      -2.09670000       0.14680000
C       -1.23300000      -0.81120000      -0.01750000
C       -2.50370000      -0.20450000      -0.21390000
C       -3.57560000       0.31290000      -0.38020000
H        0.84670000       1.68700000      -0.14380000
H        1.99750000      -2.54970000       0.50700000
H       -4.51940000       0.77840000      -0.52770000
