19
Properties=species:S:1:pos:R:3 gdb_44202=T pbc="F F F"
O        0.02730000       0.05800000       0.08700000
C        0.03570000       1.25190000      -0.02110000
C       -1.09960000       2.31290000      -0.06860000
C       -0.00840000       3.38300000       0.08850000
C        1.10910000       2.29080000       0.07210000
C        0.94830000       3.31580000      -1.04030000
C        0.66200000       3.15480000      -2.54390000
C        1.44010000       4.48280000      -2.78180000
C        1.99090000       4.40940000      -1.32750000
H       -1.72370000       2.35810000      -0.96550000
H       -1.74340000       2.20280000       0.80890000
H       -0.06230000       4.23050000       0.76090000
H        2.04100000       2.21510000       0.62060000
H        1.16530000       2.28550000      -2.97660000
H       -0.38680000       3.13670000      -2.85040000
H        2.18080000       4.47820000      -3.58350000
H        0.77240000       5.33470000      -2.92990000
H        1.93120000       5.31800000      -0.72220000
H        3.01700000       4.03190000      -1.28640000
