19
Properties=species:S:1:pos:R:3 gdb_95325=T pbc="F F F"
O        0.07340000       1.42700000      -0.20270000
C        0.04830000       0.01790000      -0.01400000
C        0.79060000      -0.42740000       1.25300000
O        0.01370000      -0.23340000       2.43730000
C       -1.31720000      -0.74930000       2.34160000
C       -1.37660000      -2.14760000       1.71170000
O       -1.37680000      -1.93110000       0.29200000
C       -1.40410000      -0.51340000       0.05350000
C       -2.09620000       0.05620000       1.29350000
H       -0.04780000       1.83990000       0.65910000
H        0.55010000      -0.41270000      -0.88670000
H        1.08840000      -1.47920000       1.15310000
H        1.69730000       0.16970000       1.38340000
H       -1.72720000      -0.71590000       3.35240000
H       -0.52330000      -2.77190000       1.99790000
H       -2.29790000      -2.66720000       2.00530000
H       -1.92860000      -0.33680000      -0.88740000
H       -3.16140000      -0.19350000       1.29820000
H       -1.98520000       1.13390000       1.41850000
