20
Properties=species:S:1:pos:R:3 gdb_9824=T pbc="F F F"
C       -0.05980000       1.55380000       0.01340000
C        0.22420000       0.05410000       0.01110000
C        0.42670000      -0.51830000      -1.38590000
O        0.35720000       0.19300000      -2.36890000
C        0.71550000      -1.99080000      -1.51490000
C        0.79600000      -2.85050000      -0.26790000
C        0.16040000      -2.62450000      -2.78780000
C        1.62170000      -2.34650000      -2.69050000
H        0.76370000       2.10720000      -0.44470000
H       -0.96020000       1.78100000      -0.56260000
H       -0.19860000       1.91830000       1.03520000
H        1.11520000      -0.18020000       0.60940000
H       -0.59060000      -0.50290000       0.49380000
H       -0.14420000      -2.84990000       0.29420000
H        1.01080000      -3.88860000      -0.53830000
H        1.59150000      -2.52070000       0.40910000
H       -0.18540000      -3.64950000      -2.71010000
H       -0.42740000      -1.97560000      -3.42610000
H        2.00810000      -1.51230000      -3.26390000
H        2.30530000      -3.17580000      -2.54430000
