17
Properties=species:S:1:pos:R:3 gdb_109464=T pbc="F F F"
O        0.00310000       1.43990000      -0.18570000
C        0.00640000       0.09340000       0.23570000
C       -1.40660000      -0.49510000       0.16590000
C       -1.89870000      -0.66030000      -1.27050000
O       -2.03570000       0.03650000      -2.22870000
O       -2.08350000      -2.01420000      -1.17260000
C       -1.61350000      -2.00460000       0.20770000
C       -0.77910000      -3.11910000       0.73100000
C       -2.20890000      -2.91110000       1.22130000
H       -0.37160000       1.46600000      -1.07550000
H        0.69320000      -0.52650000      -0.36160000
H        0.37150000       0.08730000       1.26790000
H       -2.09110000       0.08420000       0.79040000
H       -0.59730000      -3.95600000       0.06610000
H        0.04160000      -2.88260000       1.40000000
H       -2.36680000      -2.52980000       2.22460000
H       -2.95940000      -3.61360000       0.87640000
