20
Properties=species:S:1:pos:R:3 gdb_95693=T pbc="F F F"
C        0.01290000       1.56860000       0.03010000
C       -0.01830000       0.03370000      -0.01410000
C        0.67680000      -0.49930000      -1.28260000
C        0.21900000      -1.91380000      -1.64830000
O       -0.10370000      -2.68950000      -0.48960000
C        0.85960000      -2.77430000       0.48470000
N        1.75810000      -3.65820000       0.55250000
O        0.68550000      -1.90380000       1.49720000
C        0.66380000      -0.48940000       1.25990000
H        1.04220000       1.94520000       0.00880000
H       -0.51230000       1.99030000      -0.83190000
H       -0.46560000       1.95430000       0.93590000
H       -1.06330000      -0.29770000      -0.01230000
H        0.47790000       0.15980000      -2.13520000
H        1.76360000      -0.48090000      -1.12840000
H       -0.71200000      -1.88670000      -2.22050000
H        0.97500000      -2.43310000      -2.25260000
H        1.65540000      -4.30210000      -0.23160000
H        1.70560000      -0.13580000       1.26780000
H        0.16650000      -0.07930000       2.14260000
