15
Properties=species:S:1:pos:R:3 gdb_123339=T pbc="F F F"
C        0.01260000      -1.23800000      -0.10060000
C       -0.02950000      -0.03710000      -0.10530000
C       -0.04250000       1.41890000      -0.10210000
C        1.37000000       2.01080000       0.14290000
C        1.36700000       3.49980000       0.15650000
C        1.68860000       4.42960000       1.09810000
N        1.47740000       5.66550000       0.53560000
N        1.06100000       5.55610000      -0.64220000
O        0.97100000       4.14680000      -0.94040000
H        0.03250000      -2.29970000      -0.10190000
H       -0.42620000       1.79510000      -1.05700000
H       -0.72690000       1.78500000       0.67260000
H        1.76260000       1.64890000       1.09630000
H        2.04470000       1.65300000      -0.64210000
H        2.04760000       4.31100000       2.10580000
