19
Properties=species:S:1:pos:R:3 gdb_59076=T pbc="F F F"
C       -0.03380000       1.50930000       0.29790000
C        0.01590000       0.05050000      -0.16110000
O        1.05750000      -0.66370000       0.50030000
C       -1.35350000      -0.62140000      -0.05740000
C       -1.56010000      -2.11060000       0.06150000
N       -0.52560000      -3.10170000       0.14530000
C       -1.88460000      -1.21480000       1.25920000
C       -1.05300000      -1.22590000       2.42680000
N       -0.37600000      -1.20450000       3.36710000
H        0.94840000       1.97310000       0.17390000
H       -0.76430000       2.08090000      -0.28320000
H       -0.31750000       1.57480000       1.35430000
H        0.29970000       0.02430000      -1.22120000
H        0.98290000      -0.51150000       1.45110000
H       -2.11300000      -0.08210000      -0.61950000
H       -2.45230000      -2.49610000      -0.42380000
H       -0.40780000      -3.53670000      -0.76400000
H        0.35840000      -2.65700000       0.37750000
H       -2.93300000      -1.05270000       1.48660000
