11
Properties=species:S:1:pos:R:3 gdb_916=T pbc="F F F"
N       -0.03100000       1.31740000       0.00990000
C       -0.04920000       0.05480000       0.00310000
O        1.19490000      -0.65020000      -0.00790000
C        1.21030000      -1.98600000      -0.01530000
C        0.08270000      -2.72000000      -0.01270000
C       -1.14600000      -1.97450000      -0.00140000
N       -1.21670000      -0.68410000       0.00600000
H        0.92820000       1.66160000       0.00610000
H        2.22020000      -2.38270000      -0.02330000
H        0.10650000      -3.80000000      -0.01870000
H       -2.09380000      -2.51300000       0.00130000
