15
Properties=species:S:1:pos:R:3 gdb_131548=T pbc="F F F"
O       -0.19480000       1.43880000      -0.20300000
C        0.02000000       0.04670000       0.00450000
C       -1.36460000      -0.67000000      -0.00720000
N       -1.56920000      -1.29490000      -1.34770000
C       -0.31280000      -1.26700000      -1.96740000
C        0.37950000      -1.70730000      -3.04680000
O        1.67980000      -1.31430000      -2.92170000
N        1.85390000      -0.61630000      -1.72570000
C        0.66420000      -0.59910000      -1.19280000
H        0.65370000       1.83830000      -0.42460000
H        0.55220000      -0.13230000       0.94670000
H       -1.37340000      -1.45930000       0.75170000
H       -2.15730000       0.04360000       0.22490000
H       -2.30980000      -0.86100000      -1.88290000
H        0.14700000      -2.25850000      -3.94260000
