17
Properties=species:S:1:pos:R:3 gdb_73036=T pbc="F F F"
O        0.26020000       1.34110000       0.34110000
C        0.03690000      -0.00330000       0.13600000
C       -0.81640000      -0.57340000      -0.99710000
O       -1.35310000      -1.59240000      -0.10710000
C       -0.66890000      -1.00950000       1.00710000
C        0.82900000      -1.10690000       0.82350000
C        1.49490000      -2.25520000       0.14400000
C        2.95670000      -2.35250000       0.02990000
O        2.24830000      -3.13220000       0.99280000
H        1.14860000       1.55590000       0.03650000
H       -1.60440000       0.12280000      -1.30430000
H       -0.32140000      -0.99810000      -1.87760000
H       -1.18510000      -0.95260000       1.95760000
H        1.37210000      -0.71910000       1.68320000
H        0.88370000      -2.77430000      -0.59200000
H        3.40320000      -2.91060000      -0.79250000
H        3.58180000      -1.55920000       0.44020000
