17
Properties=species:S:1:pos:R:3 gdb_116707=T pbc="F F F"
C        0.12700000       0.91670000       0.53890000
O       -0.27900000      -0.06060000      -0.41980000
C       -1.21740000      -0.91880000      -0.00560000
N       -1.55870000      -1.88720000      -0.74280000
C       -2.59430000      -2.75360000      -0.29000000
C       -2.31630000      -4.20640000      -0.10370000
C       -2.66620000      -3.36800000       1.12580000
C       -1.65410000      -3.09790000       2.10270000
N       -0.84330000      -2.86370000       2.89590000
H        0.87410000       1.53660000       0.04310000
H       -0.71670000       1.54500000       0.84730000
H        0.57180000       0.44230000       1.42020000
H       -1.63450000      -0.70370000       0.98620000
H       -3.57260000      -2.51100000      -0.69970000
H       -3.04670000      -4.93910000      -0.42620000
H       -1.28040000      -4.51300000      -0.19130000
H       -3.65740000      -3.49780000       1.54750000
