14
Properties=species:S:1:pos:R:3 gdb_36571=T pbc="F F F"
C        0.94520000      -0.29960000       1.32020000
C        0.43070000       0.35330000       0.45250000
C       -0.17190000       1.16040000      -0.61110000
N        0.67740000       2.19750000      -1.20860000
C        1.08880000       3.27910000      -0.32580000
C        2.24740000       2.99080000       0.55840000
N        3.16510000       2.75600000       1.21870000
C        1.39010000       4.48490000      -1.12530000
N        1.61540000       5.42530000      -1.75490000
H        1.40780000      -0.86690000       2.09040000
H       -0.49460000       0.51040000      -1.43170000
H       -1.08100000       1.64880000      -0.23830000
H        1.48210000       1.79260000      -1.67420000
H        0.23600000       3.52410000       0.32050000
