13
Properties=species:S:1:pos:R:3 gdb_133285=T pbc="F F F"
C        0.11400000       1.44440000       0.07560000
N        0.00130000      -0.00040000       0.15520000
C       -1.13440000      -0.54330000       0.05860000
N       -1.18740000      -1.95880000       0.14310000
N       -2.26220000      -2.70720000       0.06680000
N       -3.40290000      -2.14640000      -0.10110000
C       -3.37370000      -0.76230000      -0.18650000
F       -4.57420000      -0.26710000      -0.35710000
N       -2.38580000       0.04250000      -0.12380000
H        0.78500000       1.70450000      -0.75090000
H       -0.84230000       1.95810000      -0.06750000
H        0.58400000       1.81620000       0.99320000
H       -0.31780000      -2.45920000       0.27580000
