23
Properties=species:S:1:pos:R:3 gdb_92708=T pbc="F F F"
C       -0.09620000       1.52940000      -0.00110000
C        0.00680000      -0.00160000       0.01170000
C        0.88430000      -0.50380000      -1.17100000
C        2.22810000      -0.74590000      -0.52940000
C        2.16300000      -0.76250000       0.80540000
C        3.29470000      -1.00410000       1.75480000
C        0.75210000      -0.52830000       1.25450000
C        0.39340000      -0.10010000       2.65720000
C        0.09020000      -1.50580000       2.21170000
H        0.89980000       1.98400000       0.03630000
H       -0.59120000       1.87540000      -0.91480000
H       -0.66850000       1.90640000       0.85190000
H       -1.00290000      -0.42200000      -0.04170000
H        0.48670000      -1.43070000      -1.60860000
H        0.92310000       0.22810000      -1.98690000
H        3.13150000      -0.92390000      -1.10340000
H        4.22240000      -1.21530000       1.21660000
H        3.46970000      -0.13460000       2.40060000
H        3.09310000      -1.85290000       2.42050000
H        1.19470000       0.04790000       3.37370000
H       -0.43880000       0.58430000       2.78370000
H       -0.94460000      -1.77050000       2.01950000
H        0.68690000      -2.31560000       2.61860000
