19
Properties=species:S:1:pos:R:3 gdb_39045=T pbc="F F F"
C        0.05080000       1.66250000       0.04000000
C        1.59590000       1.47320000      -0.10880000
C        2.37640000       1.58760000       1.21550000
C        1.66730000       1.02100000       2.42520000
C        0.79180000       0.01400000       2.39380000
C        0.46560000      -0.71160000       1.12180000
O        1.67920000      -1.00690000       0.35870000
C        1.33050000      -0.00190000      -0.59410000
C       -0.11370000       0.13860000      -0.07730000
H       -0.30200000       2.14370000       0.95550000
H       -0.38920000       2.17250000      -0.82140000
H        2.06580000       2.11080000      -0.86240000
H        3.35570000       1.10320000       1.10210000
H        2.58470000       2.64800000       1.40460000
H        1.89620000       1.49160000       3.37860000
H        0.30470000      -0.31780000       3.30640000
H       -0.08820000      -1.63430000       1.31780000
H        1.62860000      -0.25530000      -1.61410000
H       -0.98830000      -0.29090000      -0.56600000
