19
Properties=species:S:1:pos:R:3 gdb_110326=T pbc="F F F"
C        0.23480000       1.06820000       0.33250000
O       -0.39120000      -0.09160000      -0.19820000
C        0.34940000      -0.66160000      -1.24590000
C        1.44630000      -1.67390000      -1.02290000
C        1.08220000      -2.59530000       0.15560000
O        1.02240000      -2.04290000       1.44710000
C       -0.26110000      -2.98540000      -0.55330000
C        0.11420000      -2.05600000      -1.70890000
O       -0.06240000      -2.36680000      -3.04610000
H        1.21340000       0.82850000       0.77020000
H        0.37160000       1.83590000      -0.44210000
H       -0.42480000       1.46220000       1.10920000
H        0.55510000       0.03250000      -2.06250000
H        2.43650000      -1.54360000      -1.44390000
H        1.76140000      -3.44800000       0.21950000
H        0.34380000      -1.35820000       1.40940000
H       -0.28050000      -4.03240000      -0.86320000
H       -1.17870000      -2.74750000      -0.00790000
H       -0.95880000      -2.11790000      -3.29890000
