17
Properties=species:S:1:pos:R:3 gdb_54552=T pbc="F F F"
C        0.35190000       0.79570000       0.95190000
C       -0.15850000       0.17790000      -0.33480000
O        0.37330000       0.35820000      -1.40830000
C       -1.37370000      -0.69290000      -0.22790000
C       -2.26930000      -1.25540000      -1.34740000
C       -2.88290000      -1.87980000      -0.07440000
C       -1.49450000      -2.02710000       0.61420000
O       -1.88540000      -1.36790000       1.85070000
C       -2.56630000      -0.62300000       0.79280000
H        1.39980000       1.07790000       0.83860000
H       -0.23040000       1.70240000       1.16040000
H        0.20430000       0.12300000       1.80060000
H       -2.88420000      -0.52920000      -1.88410000
H       -1.79080000      -1.94250000      -2.04820000
H       -3.73580000      -2.54720000       0.04260000
H       -0.80830000      -2.87250000       0.65680000
H       -3.19280000       0.22510000       1.06850000
