19
Properties=species:S:1:pos:R:3 gdb_39816=T pbc="F F F"
C       -0.10150000       1.52570000       0.01150000
C        1.22920000       0.79360000      -0.00570000
C       -0.05800000       0.03700000       0.00260000
C       -0.51190000      -1.01650000       1.01000000
C       -2.02040000      -0.93270000       1.21960000
O       -2.66570000      -0.49940000       0.02510000
C       -2.04400000      -0.91900000      -1.18660000
C       -0.53170000      -1.00500000      -1.00760000
O       -0.29750000      -2.04450000      -0.00690000
H       -0.39890000       2.02610000       0.92740000
H       -0.41670000       2.03650000      -0.89260000
H        1.80990000       0.80940000      -0.92260000
H        1.82780000       0.79900000       0.89980000
H        0.05500000      -1.19600000       1.92820000
H       -2.38590000      -1.92290000       1.53230000
H       -2.28410000      -0.20080000       1.99180000
H       -2.41570000      -1.90560000      -1.50340000
H       -2.32270000      -0.17840000      -1.94510000
H        0.01710000      -1.17400000      -1.93870000
