21
Properties=species:S:1:pos:R:3 gdb_61591=T pbc="F F F"
O        0.65860000       1.77640000      -0.29250000
C       -0.12010000       0.63610000       0.05840000
C       -0.00940000      -0.49290000      -0.97750000
C       -0.28110000      -0.03540000      -2.39440000
C        0.83490000       0.45740000      -3.27520000
C        0.18070000      -0.87160000      -3.56280000
C        0.25540000       0.22620000       1.47160000
C        0.36330000      -1.15240000       1.96280000
O        1.53520000      -0.41130000       1.61380000
H        1.58440000       1.51520000      -0.22030000
H       -1.15490000       1.00270000       0.07690000
H        0.99260000      -0.93660000      -0.91290000
H       -0.72180000      -1.28340000      -0.70680000
H       -1.23730000       0.46650000      -2.52340000
H        0.63830000       1.28860000      -3.94270000
H        1.84040000       0.44820000      -2.86810000
H        0.74620000      -1.77300000      -3.34830000
H       -0.46790000      -0.95310000      -4.42800000
H        0.08380000       1.01410000       2.20630000
H        0.23690000      -1.34770000       3.02690000
H        0.13140000      -1.99010000       1.30940000
