13
Properties=species:S:1:pos:R:3 gdb_2614=T pbc="F F F"
C       -0.03920000      -1.19060000      -0.00400000
C        0.01060000       0.00890000       0.00190000
C        0.03280000       1.46420000       0.00950000
O        1.37230000       1.92530000      -0.00070000
C        1.43420000       3.34060000       0.00620000
C        2.82330000       3.77510000      -0.00470000
C        3.95920000       4.16350000      -0.01340000
H       -0.07370000      -2.25200000      -0.00930000
H       -0.51440000       1.84970000      -0.86820000
H       -0.49760000       1.84020000       0.90170000
H        0.90770000       3.75390000      -0.87160000
H        0.92460000       3.74440000       0.89830000
H        4.96690000       4.49850000      -0.02120000
