14
Properties=species:S:1:pos:R:3 gdb_523=T pbc="F F F"
C        0.10310000       1.41290000      -0.02930000
O        0.13830000       0.00780000      -0.10920000
C        0.51720000      -0.58340000       1.12030000
C        0.54170000      -2.03400000       0.99680000
C        0.56880000      -3.23430000       0.91860000
C        0.59860000      -4.68540000       0.81300000
H        1.08840000       1.83480000       0.22720000
H       -0.19550000       1.78560000      -1.01170000
H       -0.62390000       1.76390000       0.72100000
H        1.51190000      -0.21530000       1.42920000
H       -0.18570000      -0.28560000       1.91870000
H        1.58740000      -5.08460000       1.06450000
H       -0.13060000      -5.15110000       1.48490000
H        0.36170000      -5.00720000      -0.20700000
