18
Properties=species:S:1:pos:R:3 gdb_40661=T pbc="F F F"
C        1.02760000      -1.04160000      -0.51090000
C       -0.00190000      -0.03700000      -0.90000000
N        0.66860000       0.04180000       0.39830000
C       -0.07820000      -0.27510000       1.61440000
C       -0.90380000       0.91280000       2.08500000
C       -2.13830000       0.56850000       2.45290000
C       -2.35230000      -0.89390000       2.22100000
O       -2.26950000      -1.26260000       0.82480000
C       -1.10630000      -1.42490000       1.64760000
H        0.67690000      -2.04730000      -0.28930000
H        2.03290000      -0.99410000      -0.92110000
H        0.25570000       0.76010000      -1.59250000
H       -1.03580000      -0.36210000      -0.92550000
H        0.68230000      -0.51440000       2.37400000
H       -0.49340000       1.91540000       2.06600000
H       -2.90560000       1.23310000       2.82980000
H       -3.04440000      -1.48820000       2.80950000
H       -0.78180000      -2.45160000       1.79150000
