18
Properties=species:S:1:pos:R:3 gdb_62008=T pbc="F F F"
N       -0.73020000       0.11950000       0.27970000
H       -0.81920000      -0.75090000       0.80010000
H        0.17570000       0.08380000      -0.17860000
H       -2.25830000       0.10880000      -0.60090000
C       -0.77870000       1.25760000       1.22830000
C       -2.23570000       1.55050000       1.64810000
C       -3.14600000       2.07430000       0.51370000
C       -3.92600000       1.03650000      -0.30340000
O       -3.21510000       0.04750000      -0.85640000
O       -5.11710000       1.11920000      -0.46200000
C        0.08340000       1.04680000       2.39470000
C        0.78220000       0.83720000       3.35030000
H       -0.41240000       2.13300000       0.67710000
H       -2.66310000       0.65340000       2.11140000
H       -2.19360000       2.30740000       2.43650000
H       -3.90410000       2.73720000       0.93320000
H       -2.54990000       2.67690000      -0.18530000
H        1.40430000       0.66300000       4.19370000
