16
Properties=species:S:1:pos:R:3 gdb_50199=T pbc="F F F"
O       -0.61980000       0.64540000       0.49370000
C        0.40250000       0.64620000      -0.14240000
C        1.46820000       1.71670000      -0.02130000
N        2.79260000       1.35060000      -0.55900000
C        2.94250000       2.65570000      -1.25570000
C        1.41020000       2.90820000      -1.02630000
C        1.12620000       2.57000000      -2.52160000
C        2.65260000       2.44960000      -2.76000000
O        3.33010000       2.30680000      -3.73190000
H        0.63780000      -0.14460000      -0.88990000
H        1.46910000       2.08990000       1.01110000
H        3.51230000       1.12270000       0.11440000
H        3.75420000       3.31160000      -0.93270000
H        1.00120000       3.84490000      -0.65780000
H        0.53920000       1.67550000      -2.74150000
H        0.69310000       3.40320000      -3.08370000
