22
Properties=species:S:1:pos:R:3 gdb_33071=T pbc="F F F"
C       -0.08950000       1.59540000      -0.01040000
C       -0.11590000       0.06680000      -0.07960000
C        0.83290000      -0.50380000      -1.15070000
C        0.81080000      -2.00210000      -1.23990000
C        1.80110000      -2.86370000      -0.82820000
N        1.37540000      -4.15120000      -1.06110000
C        0.12090000      -4.13970000      -1.62380000
C       -0.59220000      -5.39810000      -1.99460000
C       -0.24980000      -2.81900000      -1.74250000
H        0.91500000       1.96440000       0.22690000
H       -0.38470000       2.04120000      -0.96720000
H       -0.77200000       1.97390000       0.75730000
H        0.15510000      -0.35760000       0.89500000
H       -1.13680000      -0.27820000      -0.28510000
H        0.56680000      -0.06600000      -2.12290000
H        1.85510000      -0.16560000      -0.93720000
H        2.76850000      -2.66600000      -0.39350000
H        1.91020000      -4.97980000      -0.86780000
H       -0.76070000      -6.05170000      -1.12920000
H       -1.56950000      -5.15860000      -2.42000000
H       -0.04220000      -5.98410000      -2.74220000
H       -1.18720000      -2.47090000      -2.15260000
