21
Properties=species:S:1:pos:R:3 gdb_84149=T pbc="F F F"
C        0.47910000       1.41370000       0.22790000
C       -0.01520000      -0.00080000       0.08770000
C        0.26250000      -0.75010000      -0.98270000
C       -0.22330000      -2.15640000      -1.21730000
O        0.75430000      -2.92960000      -1.91950000
C       -0.67970000      -2.84850000       0.05190000
C        0.24030000      -2.88210000       1.25390000
C       -1.00060000      -2.02620000       1.27560000
C       -0.87800000      -0.51440000       1.21690000
H        1.10950000       1.52570000       1.11940000
H        1.05870000       1.72820000      -0.64380000
H       -0.35740000       2.11410000       0.35120000
H        0.86760000      -0.34450000      -1.79090000
H       -1.07000000      -2.12350000      -1.91740000
H        1.48620000      -3.07200000      -1.30850000
H       -1.27330000      -3.74070000      -0.12050000
H        0.25850000      -3.78290000       1.85680000
H        1.19640000      -2.37230000       1.18050000
H       -1.81560000      -2.38440000       1.89750000
H       -0.48910000      -0.13570000       2.17300000
H       -1.88090000      -0.07200000       1.11940000
