20
Properties=species:S:1:pos:R:3 gdb_104373=T pbc="F F F"
C       -0.16380000       1.37620000       0.05970000
N       -0.04660000      -0.06660000      -0.15490000
C        0.83500000      -0.51410000      -1.24910000
C        2.26760000       0.02310000      -1.20040000
C        0.72430000      -2.04450000      -1.33430000
C       -0.58450000      -2.23740000      -2.10760000
O       -0.66730000      -1.10650000      -2.99440000
C        0.12220000      -0.09740000      -2.55640000
O        0.20720000       0.95220000      -3.12940000
H        0.77300000       1.87440000       0.35390000
H       -0.52280000       1.85590000      -0.85350000
H       -0.90210000       1.54980000       0.84800000
H        0.26210000      -0.51310000       0.70300000
H        2.74440000      -0.24200000      -0.25040000
H        2.87200000      -0.39080000      -2.01340000
H        2.27480000       1.11010000      -1.30700000
H        1.56730000      -2.45150000      -1.90080000
H        0.70660000      -2.52740000      -0.35360000
H       -0.60860000      -3.14030000      -2.72080000
H       -1.45390000      -2.22140000      -1.44430000
