16
Properties=species:S:1:pos:R:3 gdb_14534=T pbc="F F F"
C        0.00400000       1.54580000       0.00110000
C        0.02980000       0.02720000      -0.04280000
C       -1.11640000      -0.63350000       0.52490000
C       -2.07370000      -1.17900000       1.00890000
C        0.64720000      -0.77040000      -1.20530000
C        1.91100000      -0.07740000      -1.69720000
O        2.44490000      -0.01660000      -0.34360000
C        1.32530000      -0.75320000       0.13800000
H        0.99190000       1.95260000      -0.22330000
H       -0.72130000       1.94950000      -0.71190000
H       -0.28000000       1.88550000       1.00100000
H       -2.92060000      -1.65510000       1.43700000
H        0.09900000      -1.55100000      -1.71350000
H        2.53830000      -0.72290000      -2.32120000
H        1.81940000       0.91190000      -2.15840000
H        1.48650000      -1.49830000       0.90790000
