16
Properties=species:S:1:pos:R:3 gdb_47149=T pbc="F F F"
N        0.15120000       1.17490000      -0.93430000
C        0.09930000       0.01870000      -0.42000000
O        1.07410000      -0.94140000      -0.50740000
C        0.65070000      -2.11220000       0.20100000
C       -0.70440000      -1.76740000       0.74040000
C       -1.01780000      -0.52390000       0.37390000
C       -2.24250000       0.30110000       0.64460000
C       -3.25390000      -0.37910000       1.44330000
C       -4.07900000      -0.95210000       2.10250000
H        1.02880000       1.31370000      -1.43650000
H        0.63350000      -2.96300000      -0.49320000
H        1.38230000      -2.33750000       0.98840000
H       -1.30870000      -2.44220000       1.33080000
H       -1.93330000       1.23480000       1.13290000
H       -2.66610000       0.62260000      -0.31620000
H       -4.81990000      -1.44230000       2.68400000
