20
Properties=species:S:1:pos:R:3 gdb_87440=T pbc="F F F"
C       -0.13590000       1.46870000      -0.08650000
N        0.02400000       0.02260000      -0.01180000
C        1.38840000      -0.49760000      -0.24220000
C        0.76670000      -0.51650000       1.09810000
C        1.17480000       0.08170000       2.44510000
C       -0.08700000      -0.53680000       3.15550000
C        0.76740000      -1.19230000       4.25750000
C        1.61420000      -1.33180000       2.97700000
C        0.35050000      -1.60240000       2.08150000
H        0.73160000       2.03100000       0.29720000
H       -0.29680000       1.76160000      -1.12900000
H       -1.01800000       1.76730000       0.48960000
H        1.45400000      -1.39370000      -0.85450000
H        2.18040000       0.23100000      -0.41720000
H        1.65080000       1.03210000       2.68830000
H       -1.07100000      -0.07220000       3.22680000
H        1.15840000      -0.53220000       5.03850000
H        0.38130000      -2.11810000       4.69580000
H        2.59880000      -1.78100000       2.84100000
H       -0.12150000      -2.56780000       1.89840000
