20
Properties=species:S:1:pos:R:3 gdb_57503=T pbc="F F F"
C       -0.13390000       1.56400000       0.11940000
C        0.00130000       0.03030000       0.06170000
C        0.63810000      -0.49820000       1.36140000
C       -1.39770000      -0.59380000      -0.10480000
C        0.83590000      -0.39710000      -1.16670000
C        2.26620000       0.08280000      -1.25870000
O        2.86020000       0.77790000      -0.47400000
C        2.96690000      -0.39140000      -2.48110000
N        3.50370000      -0.76500000      -3.43480000
H        0.83520000       2.04780000       0.25530000
H       -0.58940000       1.95500000      -0.79770000
H       -0.77840000       1.85370000       0.95590000
H        0.00720000      -0.24490000       2.21960000
H        0.73770000      -1.58950000       1.33690000
H        1.62670000      -0.06640000       1.52870000
H       -1.88670000      -0.24190000      -1.01990000
H       -1.34560000      -1.68730000      -0.14930000
H       -2.03820000      -0.32420000       0.74090000
H        0.87560000      -1.49420000      -1.24390000
H        0.34490000      -0.07590000      -2.09780000
