22
Properties=species:S:1:pos:R:3 gdb_118351=T pbc="F F F"
C       -0.01780000       1.66010000      -0.05880000
C        0.04940000       0.13290000       0.01790000
C        0.67290000      -0.50210000      -1.23090000
C        0.73950000      -2.03780000      -1.17220000
C       -0.66000000      -2.63730000      -1.17850000
O       -0.95660000      -3.69820000      -0.69080000
C        1.57310000      -2.60950000      -2.32260000
C        1.54790000      -4.04510000      -2.68550000
N        0.98860000      -3.03800000      -3.60820000
H        0.98100000       2.09400000      -0.17930000
H       -0.62420000       1.98760000      -0.91040000
H       -0.45900000       2.08510000       0.84760000
H        0.62950000      -0.16860000       0.89990000
H       -0.96140000      -0.26820000       0.17390000
H        0.10860000      -0.19990000      -2.12450000
H        1.68720000      -0.10920000      -1.37090000
H        1.21480000      -2.35340000      -0.23410000
H       -1.42780000      -2.02180000      -1.70560000
H        2.51250000      -2.07450000      -2.45380000
H        2.45570000      -4.52850000      -3.03520000
H        0.86300000      -4.68980000      -2.14220000
H       -0.02750000      -3.05610000      -3.55900000
