22
Properties=species:S:1:pos:R:3 gdb_80574=T pbc="F F F"
C        0.10940000       1.65420000       0.07490000
C        0.10920000       0.14320000       0.11910000
N        1.25180000      -0.71060000      -0.28560000
C        2.56200000      -0.04820000      -0.35870000
C        2.99960000       0.42830000       1.05910000
O        3.12930000       1.84430000       1.18950000
C        1.87890000      -0.05570000       2.00530000
C        0.80680000      -0.70380000       1.12990000
C        0.15340000      -1.96020000       1.65800000
H        1.01030000       2.10400000       0.49360000
H        0.00390000       2.00130000      -0.96010000
H       -0.75460000       2.03490000       0.63130000
H       -0.82210000      -0.27740000      -0.26220000
H        3.27540000      -0.78120000      -0.75130000
H        2.54290000       0.79630000      -1.05780000
H        3.95840000      -0.03550000       1.32870000
H        3.81480000       2.13710000       0.58040000
H        2.26160000      -0.79310000       2.71720000
H        1.50880000       0.79260000       2.58830000
H       -0.42820000      -1.74870000       2.56300000
H       -0.51940000      -2.39010000       0.91170000
H        0.90500000      -2.71670000       1.91240000
