17
Properties=species:S:1:pos:R:3 gdb_32570=T pbc="F F F"
C        0.12470000       1.59320000       0.04490000
C       -0.02690000       0.07450000      -0.06330000
N        0.69260000      -0.49600000      -1.19160000
C        0.07340000      -0.80040000      -2.39150000
O       -1.09760000      -0.74040000      -2.66650000
O        1.06380000      -1.19980000      -3.24970000
C        2.27700000      -1.14710000      -2.57210000
C        2.06930000      -0.70480000      -1.32170000
N        2.93860000      -0.37320000      -0.28060000
H        1.17300000       1.87150000       0.17900000
H       -0.25470000       2.07930000      -0.85820000
H       -0.44660000       1.96590000       0.90080000
H        0.30990000      -0.41390000       0.85800000
H       -1.07350000      -0.19960000      -0.21720000
H        3.15790000      -1.43280000      -3.11710000
H        3.90420000      -0.52820000      -0.54210000
H        2.74460000      -0.88490000       0.57440000
