21
Properties=species:S:1:pos:R:3 gdb_105458=T pbc="F F F"
C       -0.63910000       1.27790000      -0.16900000
C       -0.04190000      -0.12870000      -0.02300000
C        0.56620000      -0.69410000      -1.30100000
C        1.79900000       0.05470000      -1.79680000
C        2.37700000      -0.48180000      -3.12060000
C        3.42840000       0.38270000      -3.64870000
N        4.26020000       1.07540000      -4.05390000
C        0.39130000      -2.14980000      -1.55070000
N       -0.35250000      -1.16090000      -2.35530000
H        0.12370000       2.02710000      -0.40000000
H       -1.38930000       1.31100000      -0.96630000
H       -1.12710000       1.58490000       0.76070000
H        0.72260000      -0.12270000       0.76480000
H       -0.82490000      -0.81720000       0.31910000
H        1.53890000       1.10860000      -1.94050000
H        2.57240000       0.02810000      -1.02040000
H        2.79730000      -1.48430000      -2.98830000
H        1.57120000      -0.56610000      -3.85680000
H        1.12870000      -2.72490000      -2.10300000
H       -0.14740000      -2.72650000      -0.80320000
H       -1.31710000      -1.10120000      -2.03830000
