16
Properties=species:S:1:pos:R:3 gdb_33375=T pbc="F F F"
N        0.04380000      -3.71890000       0.20930000
C        0.03680000      -2.55800000       0.16150000
C        0.02480000      -1.19450000       0.10240000
C        0.00860000       0.01230000       0.05000000
C        0.00800000       1.46270000      -0.02400000
C        1.41450000       2.05250000      -0.20050000
C        1.54560000       3.58680000      -0.09000000
C        2.51670000       3.26920000       1.06570000
O        2.24010000       1.85380000       0.96130000
H       -0.61780000       1.78530000      -0.86730000
H       -0.43850000       1.87680000       0.88850000
H        1.88020000       1.62050000      -1.09600000
H        1.96960000       4.09470000      -0.95660000
H        0.62740000       4.09540000       0.21220000
H        3.57040000       3.49190000       0.86010000
H        2.25420000       3.66500000       2.05260000
