14
Properties=species:S:1:pos:R:3 gdb_11868=T pbc="F F F"
O       -0.00630000      -0.00820000      -0.04720000
C       -0.01400000       1.19820000      -0.00660000
C       -1.26490000       2.09620000       0.01860000
C       -0.70600000       3.50900000      -0.05030000
C       -1.37720000       4.65560000      -0.68740000
O       -1.30640000       4.55230000       0.73200000
C        0.77430000       3.38090000       0.00870000
C        1.16660000       2.10040000       0.02260000
H       -1.93570000       1.83770000      -0.80440000
H       -1.81070000       1.94210000       0.95450000
H       -0.78680000       5.45650000      -1.13200000
H       -2.36500000       4.50950000      -1.12310000
H        1.41410000       4.25560000       0.04030000
H        2.18140000       1.72510000       0.05050000
