21
Properties=species:S:1:pos:R:3 gdb_41806=T pbc="F F F"
C       -0.00820000       1.59790000      -0.10590000
O        1.36140000       1.97600000      -0.22630000
C        2.15860000       0.83910000      -0.62060000
C        1.13690000      -0.26850000      -0.94530000
C       -0.01080000       0.07030000       0.02270000
C        0.22330000      -0.41850000       1.46870000
C        1.33550000       0.27720000       2.28400000
C        2.74280000       0.18290000       1.73780000
C        3.11230000       0.43590000       0.48270000
H       -0.43390000       2.11210000       0.76370000
H       -0.57110000       1.91590000      -0.99730000
H        2.73120000       1.13140000      -1.50790000
H        0.79100000      -0.17380000      -1.98050000
H        1.54780000      -1.27080000      -0.80950000
H       -0.95770000      -0.34930000      -0.33160000
H       -0.71540000      -0.29430000       2.02400000
H        0.42310000      -1.49680000       1.44370000
H        1.08120000       1.33810000       2.41110000
H        1.31850000      -0.15210000       3.29160000
H        3.51460000      -0.08650000       2.45550000
H        4.16040000       0.34500000       0.20830000
