19
Properties=species:S:1:pos:R:3 gdb_64793=T pbc="F F F"
C        0.13120000       1.60870000       0.20250000
C       -0.13600000       0.15820000      -0.15350000
C       -1.37610000      -0.07060000      -1.02070000
C       -2.65090000       0.29630000      -0.27560000
O       -3.16350000       1.39310000      -0.34630000
C       -3.21980000      -0.74390000       0.56980000
C       -3.70550000      -1.61290000       1.24740000
C        1.05260000      -0.74020000      -0.40400000
C        0.23120000      -0.91070000       0.85110000
H        1.01720000       1.69490000       0.83860000
H        0.30440000       2.20840000      -0.69860000
H       -0.71330000       2.05650000       0.73560000
H       -1.32920000       0.56070000      -1.91450000
H       -1.42410000      -1.11970000      -1.32950000
H       -4.14330000      -2.36790000       1.85430000
H        0.97340000      -1.49950000      -1.17500000
H        2.04120000      -0.30230000      -0.31450000
H        0.66260000      -0.59200000       1.79390000
H       -0.40590000      -1.78420000       0.93040000
