20
Properties=species:S:1:pos:R:3 gdb_70522=T pbc="F F F"
C       -0.17610000       1.49590000       0.00980000
C       -0.06100000      -0.01530000       0.00050000
C       -0.80150000      -0.82190000       1.04480000
C        0.70390000      -0.70080000       1.10810000
C        1.60230000      -1.87790000       0.76100000
N        2.67950000      -1.57640000      -0.18430000
C        2.52530000      -0.93670000      -1.26070000
O        1.44820000      -0.38700000      -1.88640000
C        0.12620000      -0.63070000      -1.36460000
H        0.68590000       1.95470000      -0.48580000
H       -1.08050000       1.82830000      -0.51390000
H       -0.22210000       1.88260000       1.03220000
H       -1.39520000      -0.27750000       1.77130000
H       -1.22320000      -1.78070000       0.75870000
H        1.10280000      -0.04110000       1.87380000
H        2.07730000      -2.24380000       1.67760000
H        1.01000000      -2.72230000       0.38690000
H        3.39870000      -0.73780000      -1.88330000
H       -0.06410000      -1.70800000      -1.36060000
H       -0.54280000      -0.17810000      -2.10230000
