17
Properties=species:S:1:pos:R:3 gdb_77111=T pbc="F F F"
O        0.16750000       1.03820000      -0.39240000
C       -0.02290000      -0.31110000      -0.08940000
C       -0.03620000      -0.74100000       1.42660000
N       -1.37490000      -1.39570000       1.23820000
C       -1.47250000      -0.78200000      -0.10350000
C       -2.64550000       0.04050000      -0.53490000
C       -2.31600000      -1.26360000      -1.23610000
C        1.04330000      -1.60230000       1.87770000
N        1.90610000      -2.30250000       2.19890000
H        1.10090000       1.19350000      -0.56670000
H        0.63950000      -0.96360000      -0.67280000
H       -0.12280000       0.13140000       2.08210000
H       -1.26050000      -2.40420000       1.16930000
H       -3.50380000       0.05450000       0.12750000
H       -2.43790000       0.97050000      -1.05170000
H       -1.90020000      -1.22720000      -2.23830000
H       -2.96440000      -2.11400000      -1.05050000
