15
Properties=species:S:1:pos:R:3 gdb_75937=T pbc="F F F"
O        0.26810000       1.16120000      -0.59430000
C       -0.00770000      -0.11310000      -0.08980000
C        0.45210000      -0.26910000       1.35960000
O        1.39740000       0.27670000       1.85310000
O       -0.38400000      -1.09060000       2.03160000
C       -1.51380000      -1.44940000       1.20440000
C       -1.47450000      -0.47480000       0.03170000
C       -2.56890000       0.41990000      -0.34530000
O       -2.25780000      -0.76440000      -1.10590000
H        1.01710000       1.49810000      -0.08170000
H        0.49300000      -0.89930000      -0.68380000
H       -1.39440000      -2.48260000       0.86040000
H       -2.41610000      -1.37580000       1.81370000
H       -3.50890000       0.38450000       0.20270000
H       -2.32980000       1.35940000      -0.83580000
