21
Properties=species:S:1:pos:R:3 gdb_120213=T pbc="F F F"
C        0.61310000       1.42120000      -0.00270000
O        0.73860000       0.02770000      -0.13600000
C       -0.18710000      -0.52160000      -1.05600000
C        0.03340000      -2.01800000      -1.09730000
C       -0.65670000      -2.92350000      -2.18140000
C       -0.07990000      -2.33550000      -3.48040000
C        1.21260000      -2.16020000      -3.19170000
C        1.32360000      -2.65200000      -1.74190000
C        0.46780000      -3.96370000      -1.83960000
H        0.78610000       1.94310000      -0.95780000
H       -0.38500000       1.71020000       0.36520000
H        1.36330000       1.75230000       0.72010000
H       -1.22100000      -0.30550000      -0.73170000
H       -0.05490000      -0.07130000      -2.05100000
H       -0.12510000      -2.42240000      -0.09170000
H       -1.71740000      -3.17230000      -2.14350000
H       -0.62660000      -2.13200000      -4.39010000
H        2.01550000      -1.76780000      -3.79920000
H        2.29160000      -2.61740000      -1.24500000
H        0.32310000      -4.46840000      -0.87900000
H        0.73680000      -4.67590000      -2.62250000
