19
Properties=species:S:1:pos:R:3 gdb_112034=T pbc="F F F"
C       -0.10390000       1.46160000      -0.09310000
O       -0.06500000       0.11070000       0.30740000
C       -1.29660000      -0.58500000       0.10450000
C       -1.67390000      -0.73220000      -1.34790000
C       -0.92790000      -1.38060000      -2.26970000
C        0.21500000      -2.21740000      -2.03420000
C        0.49130000      -2.89060000      -0.88510000
C       -0.30250000      -2.89230000       0.31150000
C       -1.16810000      -1.94380000       0.72800000
H        0.86250000       1.89960000       0.16870000
H       -0.26030000       1.57390000      -1.17510000
H       -0.89800000       2.01950000       0.43080000
H       -2.09810000      -0.02890000       0.61560000
H       -2.58160000      -0.23210000      -1.67610000
H       -1.23460000      -1.29060000      -3.31050000
H        0.84650000      -2.42040000      -2.89560000
H        1.32660000      -3.58630000      -0.90430000
H       -0.19960000      -3.77710000       0.93750000
H       -1.77470000      -2.13990000       1.60730000
