18
Properties=species:S:1:pos:R:3 gdb_14787=T pbc="F F F"
O       -0.14330000       1.43270000       0.10550000
C        0.03320000       0.04170000      -0.07060000
C       -1.29930000      -0.69060000      -0.08190000
O       -2.04740000      -0.15890000      -1.16350000
C       -3.37120000      -0.64030000      -1.23060000
C       -4.05000000      -0.00450000      -2.44350000
C       -5.53660000      -0.28110000      -2.47120000
O       -6.12520000      -0.78870000      -3.38950000
H       -0.79660000       1.69870000      -0.55190000
H        0.57260000      -0.18290000      -1.00450000
H        0.64330000      -0.31700000       0.76480000
H       -1.15070000      -1.77570000      -0.20410000
H       -1.83090000      -0.51900000       0.86760000
H       -3.37710000      -1.73840000      -1.32110000
H       -3.91880000      -0.38750000      -0.30630000
H       -3.91310000       1.08360000      -2.37030000
H       -3.59930000      -0.34920000      -3.37680000
H       -6.07920000       0.03340000      -1.54840000
