19
Properties=species:S:1:pos:R:3 gdb_31147=T pbc="F F F"
C        0.41620000       1.38370000       0.39890000
N       -0.20570000       0.24380000      -0.28240000
C        0.59320000      -0.40310000      -1.26820000
C        0.24340000      -0.34840000      -2.59700000
O       -0.81490000       0.25340000      -3.17970000
N        1.15470000      -1.03970000      -3.32980000
C        2.11240000      -1.56450000      -2.46850000
C        1.79890000      -1.18950000      -1.18650000
C        2.55910000      -1.54610000       0.05420000
H        1.32830000       1.13160000       0.96160000
H        0.68250000       2.14170000      -0.34350000
H       -0.30390000       1.82590000       1.09550000
H       -0.55340000      -0.41620000       0.40550000
H       -1.31510000       0.62320000      -2.43550000
H        1.11800000      -1.15940000      -4.32610000
H        2.92870000      -2.15620000      -2.84940000
H        3.04240000      -0.67370000       0.51150000
H        1.90600000      -1.98290000       0.81990000
H        3.34320000      -2.27760000      -0.16290000
