21
Properties=species:S:1:pos:R:3 gdb_120060=T pbc="F F F"
O       -0.03890000       1.45230000       0.05680000
C        0.00070000       0.04180000      -0.10640000
C       -1.41170000      -0.49680000       0.08510000
C       -1.48590000      -2.01670000      -0.02000000
C       -2.83090000      -2.74290000      -0.00610000
C       -3.32990000      -2.85200000      -1.45860000
C       -2.28820000      -2.19810000      -2.36250000
C       -1.23340000      -2.76460000      -1.37240000
C       -2.31450000      -3.82910000      -0.91600000
H        0.84870000       1.79550000      -0.08100000
H        0.37220000      -0.23090000      -1.10780000
H        0.67820000      -0.42490000       0.62820000
H       -1.76860000      -0.18420000       1.07470000
H       -2.07380000      -0.01820000      -0.64360000
H       -0.83980000      -2.47060000       0.74240000
H       -3.52110000      -2.84790000       0.82220000
H       -4.37630000      -3.03620000      -1.66690000
H       -2.23280000      -2.71300000      -3.32600000
H       -2.31780000      -1.11620000      -2.53340000
H       -0.21970000      -2.98030000      -1.70480000
H       -2.31100000      -4.90570000      -0.82990000
