16
Properties=species:S:1:pos:R:3 gdb_98032=T pbc="F F F"
C        0.12370000       1.36890000       0.10830000
O        0.15350000      -0.06390000       0.04820000
C        0.51630000      -0.57290000      -1.14470000
O        0.80190000       0.09090000      -2.11230000
C        0.51890000      -2.01340000      -1.11390000
C        0.54140000      -3.21900000      -1.17190000
C        0.59180000      -4.64700000      -1.23250000
C        0.09120000      -5.34150000      -2.46330000
N        1.52270000      -5.31160000      -2.18000000
H        1.11120000       1.78440000      -0.10740000
H       -0.59190000       1.77020000      -0.61370000
H       -0.18090000       1.61270000       1.12580000
H        0.50440000      -5.16270000      -0.28040000
H       -0.38180000      -6.31250000      -2.34960000
H       -0.30660000      -4.71960000      -3.25930000
H        1.97530000      -4.60180000      -2.75170000
