19
Properties=species:S:1:pos:R:3 gdb_81608=T pbc="F F F"
O        0.06720000       1.44880000      -0.25360000
C       -0.05290000       0.06020000      -0.13600000
C       -0.06490000      -0.65100000       1.25720000
C       -1.52440000      -0.12630000       1.42730000
C       -1.44980000      -0.64000000      -0.04380000
C       -0.70760000      -1.88190000       0.54430000
C        0.10460000      -2.84130000      -0.33820000
C        0.95050000      -3.72390000       0.45870000
C        1.63600000      -4.43770000       1.14100000
H       -0.51110000       1.87860000       0.38400000
H        0.63990000      -0.33930000      -0.87570000
H        0.72510000      -0.66650000       2.00860000
H       -2.16810000      -0.68980000       2.10740000
H       -1.66930000       0.94580000       1.58780000
H       -2.25000000      -0.63880000      -0.78600000
H       -1.33480000      -2.47300000       1.21800000
H       -0.59670000      -3.44690000      -0.92770000
H        0.72510000      -2.31070000      -1.06700000
H        2.24770000      -5.07370000       1.73120000
