15
Properties=species:S:1:pos:R:3 gdb_123763=T pbc="F F F"
C        0.04990000       1.23770000      -0.30390000
C        1.50360000       1.49270000       0.14040000
C        1.39060000       0.09700000       0.81010000
O        0.04100000      -0.06370000       0.33110000
C        2.30570000      -0.97060000       0.31140000
N        3.10640000      -1.72760000       1.00350000
C        3.69570000      -2.48250000       0.01940000
N        3.29730000      -2.22380000      -1.19570000
O        2.36090000      -1.20250000      -1.00650000
H       -0.70480000       1.90270000       0.13020000
H       -0.11340000       1.16120000      -1.38390000
H        2.23390000       1.55390000      -0.66620000
H        1.65430000       2.31790000       0.83630000
H        1.44650000       0.09000000       1.90320000
H        4.43610000      -3.24440000       0.21520000
