19
Properties=species:S:1:pos:R:3 gdb_103316=T pbc="F F F"
C        0.83270000      -0.48160000       1.29060000
C        0.06710000      -0.04000000       0.03790000
C       -1.34910000      -0.61060000      -0.02510000
O       -2.11690000      -0.14130000       1.06740000
C       -2.10720000      -0.66230000      -1.41110000
C       -1.22640000      -1.91470000      -1.74960000
C       -1.59360000      -2.14140000      -0.24240000
C       -3.00110000      -1.70080000      -0.70360000
O       -4.13780000      -2.04210000      -0.63870000
H        1.80030000       0.02450000       1.35540000
H        0.26210000      -0.25370000       2.19430000
H        1.01970000      -1.56030000       1.27660000
H       -0.02450000       1.05590000       0.02880000
H        0.63970000      -0.29080000      -0.85830000
H       -2.09630000       0.82200000       1.06570000
H       -2.37650000       0.16520000      -2.06520000
H       -1.64410000      -2.62510000      -2.46320000
H       -0.17660000      -1.71890000      -1.95820000
H       -1.29880000      -2.96220000       0.40730000
