18
Properties=species:S:1:pos:R:3 gdb_66265=T pbc="F F F"
C       -0.09500000       1.60900000       0.00500000
C        0.03430000       0.08380000      -0.02550000
N        0.89910000      -0.39090000      -1.11800000
C        1.40170000      -1.72110000      -0.73560000
C        1.78140000      -1.52310000       0.73510000
C        0.81760000      -0.44230000       1.21970000
O        0.68160000      -0.03390000       2.33850000
C       -1.28480000      -0.56880000      -0.01990000
C       -2.34650000      -1.13490000      -0.04840000
H        0.89850000       2.05910000      -0.06000000
H       -0.69990000       1.96340000      -0.83400000
H       -0.57110000       1.91720000       0.93870000
H        0.39920000      -0.41530000      -2.00000000
H        0.63970000      -2.51110000      -0.82570000
H        2.25180000      -1.99370000      -1.36600000
H        1.70610000      -2.41940000       1.35410000
H        2.79860000      -1.12950000       0.83920000
H       -3.29060000      -1.62150000      -0.06390000
