21
Properties=species:S:1:pos:R:3 gdb_126297=T pbc="F F F"
C        0.15260000       1.45810000       0.22220000
C        0.03230000      -0.05100000      -0.05950000
C       -1.38030000      -0.54610000      -0.11550000
C       -2.19660000      -0.80480000      -1.20050000
C       -3.43300000      -1.21890000      -0.65640000
C       -4.67980000      -1.63410000      -1.37280000
N       -3.38780000      -1.21730000       0.67430000
N       -2.13470000      -0.80940000       0.98880000
C       -1.77730000      -0.66800000       2.38280000
H        1.20180000       1.76960000       0.22210000
H       -0.37770000       2.03640000      -0.53990000
H       -0.27470000       1.72040000       1.19500000
H        0.50440000      -0.27690000      -1.02090000
H        0.60010000      -0.60900000       0.69570000
H       -1.92510000      -0.71780000      -2.24130000
H       -4.50270000      -2.50130000      -2.01890000
H       -5.45390000      -1.89780000      -0.64890000
H       -5.06380000      -0.82980000      -2.01020000
H       -0.76090000      -1.03060000       2.55810000
H       -1.84210000       0.37400000       2.71660000
H       -2.47790000      -1.26800000       2.96310000
