12
Properties=species:S:1:pos:R:3 gdb_559=T pbc="F F F"
O       -0.55350000       0.87840000      -1.04560000
C        0.15090000       0.74790000      -0.07910000
C        1.44960000       1.49880000       0.13010000
C        1.33810000       2.76020000       1.03200000
C        2.34700000       2.01870000       1.93170000
O        2.31080000       0.84950000       1.08220000
H       -0.11150000       0.07460000       0.76930000
H        1.93530000       1.66630000      -0.83850000
H        1.67770000       3.68930000       0.57510000
H        0.35300000       2.91610000       1.47590000
H        3.35020000       2.45940000       1.97180000
H        2.01540000       1.79250000       2.95110000
