19
Properties=species:S:1:pos:R:3 gdb_73318=T pbc="F F F"
C        0.00600000       1.62080000      -0.11150000
C        0.05540000       0.11510000       0.01590000
C        0.57770000      -0.69360000      -1.22970000
C        0.49780000      -2.20260000      -0.75900000
C       -0.04020000      -1.86470000       0.60920000
O       -0.48140000      -2.42370000       1.87440000
C       -0.62580000      -0.93240000       2.00130000
C        0.67720000      -0.63230000       1.22210000
C       -1.11680000      -0.74850000       0.54530000
H        1.00120000       2.03470000      -0.31220000
H       -0.64920000       1.92790000      -0.93510000
H       -0.37020000       2.08520000       0.80570000
H       -0.04700000      -0.51340000      -2.11040000
H        1.60190000      -0.40660000      -1.48830000
H       -0.18530000      -2.79940000      -1.36860000
H        1.47490000      -2.69190000      -0.74220000
H       -1.00890000      -0.57510000       2.95560000
H        1.69810000      -0.62560000       1.60490000
H       -2.12940000      -0.87340000       0.16090000
