21
Properties=species:S:1:pos:R:3 gdb_111539=T pbc="F F F"
C       -0.02300000       1.48610000       0.09340000
C       -0.00450000      -0.00830000      -0.04220000
C       -0.92370000      -0.91610000       0.80340000
C       -1.02800000      -2.27510000       0.11790000
C        0.45440000      -2.05560000      -0.29490000
C        0.58180000      -1.03040000       0.90340000
C        0.44200000      -0.82620000      -1.25980000
C       -0.37190000      -0.84460000      -2.54650000
O        0.16150000      -1.74540000      -3.51050000
H        0.93190000       1.92430000      -0.21870000
H       -0.81280000       1.93880000      -0.51760000
H       -0.20050000       1.78550000       1.13230000
H       -1.60020000      -0.47960000       1.52790000
H       -1.11200000      -3.07850000       0.85570000
H       -1.77650000      -2.43050000      -0.66790000
H        1.11340000      -2.90150000      -0.48300000
H        1.26440000      -0.93850000       1.73600000
H        1.47860000      -0.56480000      -1.50620000
H       -1.43130000      -1.06100000      -2.34210000
H       -0.33680000       0.14450000      -3.01740000
H        0.12870000      -2.62850000      -3.12900000
