19
Properties=species:S:1:pos:R:3 gdb_108566=T pbc="F F F"
O       -0.09920000       1.31610000      -0.44160000
C       -0.07060000      -0.02610000       0.03250000
C       -1.48090000      -0.53760000       0.05910000
C       -2.48010000       0.10600000       1.02030000
O       -3.41930000      -0.92560000       1.34920000
C       -3.26950000      -1.93210000       0.36320000
C       -3.54850000      -1.38670000      -1.07750000
C       -2.04280000      -1.15600000      -1.21650000
C       -1.76120000      -2.01120000       0.01150000
H        0.78550000       1.68340000      -0.35420000
H        0.54600000      -0.66750000      -0.61750000
H        0.35910000      -0.07380000       1.04620000
H       -1.99230000       0.44280000       1.94300000
H       -2.99430000       0.96620000       0.57370000
H       -3.80620000      -2.82240000       0.68740000
H       -3.89330000      -2.18050000      -1.74620000
H       -4.22680000      -0.53040000      -1.14930000
H       -1.48210000      -1.10090000      -2.14250000
H       -1.05010000      -2.80510000       0.19830000
