20
Properties=species:S:1:pos:R:3 gdb_79923=T pbc="F F F"
C        0.00650000       1.49120000      -0.09570000
N        0.01060000       0.02980000      -0.04670000
C       -1.15240000      -0.67330000       0.63380000
C       -0.75290000      -2.11970000       0.36740000
C        0.55780000      -2.12010000       0.65210000
C        1.58930000      -3.19210000       0.61780000
C        0.78560000      -0.65740000       1.06100000
C       -0.43000000      -0.49250000       2.03740000
O       -0.48170000       0.75500000       2.68030000
H        0.99440000       1.81980000      -0.43880000
H       -0.71630000       1.79860000      -0.86070000
H       -0.22750000       2.00960000       0.84000000
H       -2.16690000      -0.33100000       0.42570000
H       -1.39380000      -2.92810000       0.04490000
H        1.15720000      -4.14950000       0.31220000
H        2.39610000      -2.94470000      -0.08380000
H        2.06030000      -3.33090000       1.59940000
H        1.78970000      -0.30540000       1.30080000
H       -0.58860000      -1.31030000       2.75430000
H       -1.28280000       0.78440000       3.21280000
