15
Properties=species:S:1:pos:R:3 gdb_46817=T pbc="F F F"
O       -0.24900000       0.33650000      -0.93840000
C       -0.13660000       1.30770000      -0.24280000
C       -1.21160000       1.92340000       0.66150000
C       -0.82700000       3.41060000       0.81910000
C        0.66370000       3.44710000       0.53090000
O        1.39340000       2.46550000       1.25160000
C        1.09820000       2.19910000      -0.14860000
C        2.18810000       2.07680000      -1.06210000
C        3.08270000       1.94640000      -1.85320000
H       -2.19690000       1.76550000       0.22010000
H       -1.19200000       1.39870000       1.62170000
H       -1.35220000       4.03490000       0.08850000
H       -1.04840000       3.80740000       1.81390000
H        1.18510000       4.38330000       0.34920000
H        3.87750000       1.82910000      -2.54810000
