15
Properties=species:S:1:pos:R:3 gdb_31182=T pbc="F F F"
C        0.02490000       1.42090000      -0.06290000
O        0.01960000      -0.01140000      -0.03420000
C        0.59520000      -0.65030000      -1.04120000
C        0.72940000      -2.00350000      -1.26090000
C        0.25460000      -3.07770000      -0.41070000
O        0.39990000      -4.25950000      -0.65190000
C        1.44110000      -2.10360000      -2.51380000
C        1.67250000      -0.84680000      -2.93870000
O        1.15080000       0.06770000      -2.02970000
H        1.04850000       1.80600000      -0.06400000
H       -0.50430000       1.79410000      -0.94410000
H       -0.49190000       1.73070000       0.84470000
H       -0.26970000      -2.74000000       0.50940000
H        1.72380000      -3.02310000      -3.00030000
H        2.15420000      -0.40700000      -3.79420000
