18
Properties=species:S:1:pos:R:3 gdb_111711=T pbc="F F F"
C        0.32090000       1.00920000       0.55470000
N       -0.39390000       0.25680000      -0.46860000
C        0.43960000      -0.36080000      -1.44300000
C        1.35680000      -1.56220000      -1.23070000
C        0.73060000      -2.56980000      -0.26340000
N       -0.58230000      -2.50790000      -0.99270000
C        0.05140000      -1.67810000      -2.04940000
C       -0.16940000      -1.91230000      -3.43750000
N       -0.34970000      -2.12180000      -4.56200000
H        1.07720000       0.42310000       1.10400000
H        0.83470000       1.86130000       0.09490000
H       -0.39800000       1.40750000       1.27570000
H       -1.01660000      -0.43740000      -0.06940000
H        0.86130000       0.33220000      -2.16960000
H        2.37880000      -1.58080000      -1.58680000
H        1.20380000      -3.55310000      -0.32970000
H        0.65970000      -2.27400000       0.78840000
H       -0.85170000      -3.41650000      -1.35340000
