23
Properties=species:S:1:pos:R:3 gdb_104408=T pbc="F F F"
C        0.01840000       1.61010000       0.13930000
C        0.03130000       0.07930000       0.06390000
C       -1.35800000      -0.55440000      -0.07300000
O       -2.16230000      -0.27800000       1.08310000
C       -2.12930000      -0.19070000      -1.35900000
C       -3.19900000      -1.30130000      -1.52630000
C       -2.75450000      -2.45900000      -0.58870000
C       -1.33260000      -2.09490000      -0.13540000
O       -0.35250000      -2.45660000      -1.10530000
H        1.03220000       1.99920000       0.27180000
H       -0.38980000       2.06060000      -0.77170000
H       -0.57460000       1.96730000       0.98920000
H        0.64820000      -0.25090000      -0.77620000
H        0.49320000      -0.32330000       0.97340000
H       -2.40460000       0.65250000       1.05530000
H       -2.56540000       0.81190000      -1.30070000
H       -1.43550000      -0.19450000      -2.20460000
H       -4.19270000      -0.94260000      -1.24690000
H       -3.26310000      -1.62440000      -2.56830000
H       -3.40570000      -2.51910000       0.28630000
H       -2.77470000      -3.43770000      -1.08020000
H       -1.08270000      -2.51410000       0.84890000
H       -0.41230000      -3.40660000      -1.24170000
