19
Properties=species:S:1:pos:R:3 gdb_72336=T pbc="F F F"
C       -0.03110000       1.51230000       0.01630000
C       -0.01480000      -0.00830000       0.00170000
C       -1.33090000      -0.67200000      -0.47620000
C       -1.67900000      -1.63740000       0.63560000
C       -0.79570000      -1.64590000       1.63550000
C        0.33820000      -0.70320000       1.37730000
C        1.63040000      -1.25500000       0.71010000
O        1.24580000      -2.02450000      -0.43190000
C        1.29830000      -0.60300000      -0.56570000
H        0.91190000       1.91950000       0.39890000
H       -0.18230000       1.91500000      -0.99230000
H       -0.84090000       1.88770000       0.65100000
H       -2.12740000       0.06730000      -0.63510000
H       -1.19830000      -1.19790000      -1.43000000
H       -2.56990000      -2.25630000       0.59460000
H       -0.86200000      -2.27250000       2.51820000
H        0.56800000      -0.00980000       2.19300000
H        2.58780000      -1.48780000       1.16280000
H        1.93510000      -0.19960000      -1.34710000
