19
Properties=species:S:1:pos:R:3 gdb_96225=T pbc="F F F"
C        0.33740000       1.53330000       0.00690000
C       -0.03770000       0.05640000      -0.10400000
O        0.79750000      -0.51460000      -1.08840000
C        0.53550000      -1.87050000      -1.38980000
C        1.49960000      -2.78710000      -0.64660000
C        1.48050000      -2.66120000       0.84500000
C        0.87040000      -1.75880000       1.62570000
C        0.01330000      -0.59510000       1.29280000
O       -0.67100000      -0.10060000       2.17050000
H        1.38840000       1.63530000       0.29370000
H        0.19350000       2.02530000      -0.95780000
H       -0.28600000       2.01330000       0.76230000
H       -1.09240000      -0.02090000      -0.41920000
H       -0.50570000      -2.13040000      -1.14690000
H        0.66400000      -1.99810000      -2.47070000
H        1.29720000      -3.83270000      -0.91900000
H        2.52350000      -2.58830000      -0.99550000
H        2.04430000      -3.43820000       1.36050000
H        0.94240000      -1.88240000       2.70360000
