17
Properties=species:S:1:pos:R:3 gdb_105336=T pbc="F F F"
O        0.09970000       1.47230000      -0.05270000
C        0.09640000       0.06990000       0.09810000
C       -1.32320000      -0.51180000      -0.04100000
C       -2.02240000      -0.47840000      -1.43910000
C       -2.11320000      -1.99810000      -1.32380000
C       -0.78360000      -2.59630000      -1.13480000
N       -1.45620000      -2.02100000       0.05380000
C       -2.15500000       0.09950000       0.99980000
N       -2.76800000       0.64250000       1.81590000
H       -0.37220000       1.85730000       0.69530000
H        0.73480000      -0.31940000      -0.69760000
H        0.51790000      -0.25600000       1.06010000
H       -2.98520000       0.03080000      -1.42000000
H       -1.42300000      -0.08230000      -2.26240000
H       -2.99980000      -2.58750000      -1.52770000
H       -0.72060000      -3.67730000      -1.06380000
H        0.09610000      -2.12340000      -1.56060000
