21
Properties=species:S:1:pos:R:3 gdb_109108=T pbc="F F F"
C       -0.29410000       1.44680000      -0.05900000
C        0.16970000      -0.01720000       0.04620000
C        0.83340000      -0.52540000      -1.20050000
C        2.10980000      -0.91050000      -1.31200000
C        2.48450000      -1.35650000      -2.69730000
C        1.15450000      -1.26000000      -3.45660000
O        0.95340000      -1.62550000      -4.58540000
C        0.09540000      -0.64410000      -2.52120000
C       -1.19870000      -1.47260000      -2.50640000
H        0.55190000       2.11120000      -0.26090000
H       -1.02390000       1.58130000      -0.86380000
H       -0.76580000       1.77090000       0.87350000
H        0.86250000      -0.12200000       0.88880000
H       -0.70040000      -0.64560000       0.28040000
H        2.81950000      -0.90240000      -0.49120000
H        3.23520000      -0.71480000      -3.17930000
H        2.88000000      -2.37850000      -2.75490000
H       -0.14660000       0.35200000      -2.92280000
H       -1.03060000      -2.45420000      -2.05150000
H       -1.98990000      -0.96820000      -1.94450000
H       -1.54430000      -1.62660000      -3.53190000
