21
Properties=species:S:1:pos:R:3 gdb_122930=T pbc="F F F"
C       -0.23680000       1.37960000       0.07650000
C       -0.03450000      -0.13320000      -0.01370000
O        0.59840000      -0.57290000      -1.19740000
C       -0.21050000      -0.55440000      -2.35890000
C        0.56200000      -1.22780000      -3.48440000
C       -0.21410000      -1.25400000      -4.79480000
O        0.59790000      -1.90170000      -5.76060000
C        0.82540000      -0.66080000       1.13230000
O        0.80000000      -0.22660000       2.25330000
H        0.70490000       1.89620000      -0.13050000
H       -0.99220000       1.72850000      -0.63180000
H       -0.55810000       1.63630000       1.08870000
H       -1.01480000      -0.63790000       0.09260000
H       -1.15790000      -1.08610000      -2.16370000
H       -0.47080000       0.47870000      -2.63780000
H        1.50910000      -0.70040000      -3.63920000
H        0.80990000      -2.25360000      -3.19220000
H       -1.16940000      -1.78680000      -4.65500000
H       -0.46000000      -0.22500000      -5.10570000
H        0.11750000      -1.92210000      -6.59330000
H        1.47720000      -1.51050000       0.83360000
