16
Properties=species:S:1:pos:R:3 gdb_31593=T pbc="F F F"
N        0.25010000       1.27580000      -0.35900000
C        0.01860000      -0.07780000      -0.14860000
C       -1.12420000      -0.80380000       0.01890000
O       -2.37140000      -0.24760000       0.16910000
C       -0.72710000      -2.18070000       0.08800000
C        0.62660000      -2.19760000      -0.02500000
C        1.66140000      -3.26190000      -0.05360000
O        2.23040000      -3.47850000      -1.34430000
O        1.09290000      -0.90620000      -0.17150000
H        0.93190000       1.66700000       0.28290000
H       -0.61980000       1.78930000      -0.28370000
H       -2.98040000      -0.67810000      -0.43970000
H       -1.36810000      -3.03900000       0.22040000
H        2.45060000      -3.03380000       0.68050000
H        1.20090000      -4.20930000       0.23900000
H        2.56410000      -2.62850000      -1.65030000
