17
Properties=species:S:1:pos:R:3 gdb_102977=T pbc="F F F"
O       -0.31690000       1.39930000      -0.40640000
C       -0.14300000       0.03530000      -0.10710000
C       -1.48350000      -0.70060000       0.07370000
C       -1.28930000      -2.21490000       0.22930000
O       -2.55280000      -2.87910000       0.32750000
C       -2.92200000      -3.70840000      -0.67320000
O       -3.97070000      -4.27380000      -0.68450000
C       -2.28410000      -0.13040000       1.23490000
O       -2.01790000       0.91230000       1.78670000
H       -0.74490000       1.78410000       0.37000000
H        0.40410000      -0.40620000      -0.94770000
H        0.47190000      -0.11090000       0.79580000
H       -2.09610000      -0.53380000      -0.82560000
H       -0.71900000      -2.60720000      -0.62240000
H       -0.73330000      -2.45080000       1.14250000
H       -2.14590000      -3.79980000      -1.45840000
H       -3.15540000      -0.73480000       1.55640000
