11
Properties=species:S:1:pos:R:3 gdb_240=T pbc="F F F"
C       -0.09000000       1.43640000      -0.06710000
C        0.15430000      -0.03560000       0.10480000
N        0.53240000      -0.67800000       1.12400000
O       -0.08210000      -0.67830000      -1.09360000
C       -0.17010000      -2.05040000      -1.12490000
O       -0.28900000      -2.62260000      -2.16230000
H        0.12080000       1.97720000       0.85650000
H        0.54320000       1.82750000      -0.86920000
H       -1.12890000       1.61200000      -0.36290000
H        0.65580000      -0.05510000       1.91890000
H       -0.13030000      -2.49900000      -0.12530000
