17
Properties=species:S:1:pos:R:3 gdb_45792=T pbc="F F F"
O       -0.23050000       0.56280000      -1.19240000
C       -0.05680000       1.21570000      -0.19230000
C       -1.12650000       1.37110000       0.89340000
C       -1.44080000       2.79900000       1.29400000
C       -0.57320000       3.80750000       1.39640000
C        0.89750000       3.67680000       1.10820000
C        1.22280000       3.42810000      -0.39070000
C        1.26400000       1.94530000       0.05740000
O        1.39210000       2.34760000       1.43540000
H       -2.02490000       0.86690000       0.53030000
H       -0.77010000       0.81930000       1.77430000
H       -2.48820000       2.99340000       1.50900000
H       -0.93090000       4.79490000       1.67640000
H        1.47920000       4.45040000       1.61730000
H        0.47760000       3.72470000      -1.12880000
H        2.21120000       3.78930000      -0.67950000
H        2.09730000       1.33010000      -0.29220000
