16
Properties=species:S:1:pos:R:3 gdb_12914=T pbc="F F F"
C       -0.12020000       1.51940000       0.10390000
C        0.01910000       0.03330000       0.10350000
O       -1.17900000      -0.75010000      -0.01090000
C       -0.65610000      -1.71160000       0.94740000
C        0.67900000      -0.98360000       0.99050000
C        1.20790000      -0.74430000      -0.43630000
C        1.10430000      -1.71810000      -1.54820000
O        2.00520000      -1.94350000      -2.32270000
H        0.85030000       1.99610000       0.26560000
H       -0.51280000       1.86510000      -0.85850000
H       -0.80890000       1.84340000       0.89010000
H       -1.20670000      -1.64390000       1.89190000
H       -0.68870000      -2.74040000       0.57510000
H        1.32960000      -0.86970000       1.84680000
H        2.13950000      -0.18560000      -0.43800000
H        0.12340000      -2.22460000      -1.64720000
