16
Properties=species:S:1:pos:R:3 gdb_70771=T pbc="F F F"
C        0.02630000       1.44820000      -0.11150000
C        0.01380000      -0.04540000      -0.05540000
N        0.59720000      -0.94380000      -1.10810000
C        0.06550000      -1.92680000      -0.09930000
C        0.13890000      -3.34580000      -0.23320000
C        0.18340000      -4.54240000      -0.34640000
C        0.48990000      -0.99600000       1.09130000
O       -0.79970000      -1.03800000       1.75700000
C       -1.14890000      -1.02220000       0.34750000
H        1.04820000       1.82080000      -0.23030000
H       -0.57190000       1.81890000      -0.95060000
H       -0.39180000       1.85640000       0.81400000
H        0.00390000      -0.94990000      -1.94250000
H        0.22880000      -5.59900000      -0.44410000
H        1.40250000      -1.00210000       1.68510000
H       -2.20070000      -1.06270000       0.05870000
