17
Properties=species:S:1:pos:R:3 gdb_101512=T pbc="F F F"
O        0.30400000       0.54520000       0.94670000
C       -0.09560000       0.25990000      -0.38340000
C       -1.47700000      -0.40730000      -0.46790000
O       -1.86090000      -0.58580000      -1.81760000
C       -1.50350000      -1.71980000       0.34490000
C       -2.81950000      -2.32680000       0.43190000
C       -3.91890000      -2.82700000       0.50680000
C       -5.15630000      -3.38690000       0.58970000
C       -6.25380000      -3.88540000       0.66450000
H       -0.23300000       1.27600000       1.26960000
H       -0.10400000       1.15640000      -1.01820000
H        0.66460000      -0.42150000      -0.78710000
H       -2.22620000       0.27580000      -0.04810000
H       -1.29630000      -1.26280000      -2.20750000
H       -0.79440000      -2.42820000      -0.11070000
H       -1.11140000      -1.50270000       1.34580000
H       -7.21920000      -4.32200000       0.72850000
