19
Properties=species:S:1:pos:R:3 gdb_87725=T pbc="F F F"
O       -0.13470000       1.30540000      -0.26610000
C       -0.07440000      -0.07730000      -0.04710000
C       -0.47240000      -0.67300000       1.28480000
C       -1.38380000      -0.77850000       0.09480000
C       -2.72630000      -0.09360000      -0.18410000
C       -2.83900000      -0.97740000      -1.45110000
O       -2.29390000      -0.37140000      -2.61950000
C       -1.78750000      -1.95230000      -0.82270000
O       -0.84710000      -2.49460000      -1.70030000
H        0.64840000       1.71030000       0.12080000
H        0.69270000      -0.60370000      -0.61490000
H        0.05520000      -1.55740000       1.62960000
H       -0.77050000       0.01920000       2.06670000
H       -3.49260000      -0.33730000       0.55780000
H       -2.71310000       0.98770000      -0.34270000
H       -3.81470000      -1.38260000      -1.72720000
H       -1.74320000       0.37220000      -2.34620000
H       -2.25830000      -2.76760000      -0.26200000
H       -0.86210000      -1.90590000      -2.47090000
