16
Properties=species:S:1:pos:R:3 gdb_51369=T pbc="F F F"
O       -0.02740000      -0.23740000       0.09350000
C        0.25070000       0.78860000      -0.46920000
C        1.21010000       1.83040000       0.09930000
N        1.32820000       2.95230000      -0.82520000
C        1.34050000       4.35850000      -0.55510000
C        2.32050000       4.78220000       0.61180000
O        2.90630000       3.60440000       1.17440000
C        3.43530000       4.11840000      -0.05150000
C        2.49430000       3.67140000      -1.24160000
H       -0.17670000       1.06040000      -1.46150000
H        0.83590000       2.14460000       1.07860000
H        2.17480000       1.34670000       0.28100000
H        0.57060000       5.00450000      -0.96230000
H        2.27390000       5.67520000       1.22200000
H        4.49070000       4.35530000      -0.09710000
H        2.79220000       3.68150000      -2.28430000
