16
Properties=species:S:1:pos:R:3 gdb_44333=T pbc="F F F"
O        0.03420000      -0.01860000       0.07980000
C        0.03580000       1.18490000      -0.01820000
N       -1.06620000       2.01560000       0.05040000
C       -0.77780000       3.38980000      -0.17520000
C        0.22400000       4.17530000       0.73120000
C        0.90010000       3.45940000       1.83870000
C        1.53220000       2.36500000       1.39870000
C        1.26030000       2.14250000      -0.08600000
C        0.66380000       3.48540000      -0.54940000
H       -1.95400000       1.66590000       0.37200000
H       -1.53630000       3.96390000      -0.69530000
H        0.07450000       5.24880000       0.76690000
H        0.84360000       3.78030000       2.87180000
H        2.02600000       1.61920000       2.00900000
H        2.08200000       1.72940000      -0.66930000
H        1.01820000       4.00310000      -1.43140000
