15
Properties=species:S:1:pos:R:3 gdb_43211=T pbc="F F F"
O       -0.04460000       0.00700000      -0.38700000
C       -0.06760000       1.16970000      -0.12760000
C       -1.18720000       2.19410000       0.09400000
C       -1.55360000       2.31630000       1.59540000
O       -0.46910000       3.24040000       1.83450000
C       -0.10030000       3.25420000       0.45210000
C        1.04660000       2.24920000       0.09880000
C        2.12080000       2.00700000       1.02810000
C        3.00240000       1.79010000       1.81540000
H       -1.97760000       2.28370000      -0.64880000
H       -2.52620000       2.79050000       1.76810000
H       -1.47860000       1.40620000       2.19960000
H       -0.02710000       4.25970000       0.03540000
H        1.43280000       2.50200000      -0.90040000
H        3.78040000       1.60190000       2.51310000
