17
Properties=species:S:1:pos:R:3 gdb_74663=T pbc="F F F"
C        0.07190000       1.44040000       0.06400000
C        0.02630000      -0.04280000      -0.05170000
N       -0.05440000      -0.71670000      -1.13030000
C        0.00260000      -2.11300000      -0.73360000
C        1.39250000      -2.80000000      -0.74090000
N        2.32120000      -1.89210000      -0.04240000
C        1.44940000      -2.77540000       0.75790000
C        0.07340000      -2.09410000       0.82790000
O        0.05020000      -0.70350000       1.15500000
H        1.02470000       1.74810000       0.50590000
H       -0.03290000       1.88890000      -0.92330000
H       -0.72580000       1.79700000       0.72290000
H       -0.78080000      -2.71780000      -1.19500000
H        1.75590000      -3.54490000      -1.43790000
H        3.24390000      -2.32350000      -0.06720000
H        1.86430000      -3.49120000       1.45670000
H       -0.68390000      -2.62540000       1.40550000
