18
Properties=species:S:1:pos:R:3 gdb_22708=T pbc="F F F"
O       -0.06480000       1.41110000       0.13390000
C       -0.04310000       0.00390000      -0.03450000
C       -1.43730000      -0.56220000      -0.04700000
C       -2.60440000      -0.31970000      -1.07360000
C       -3.25460000      -1.20610000       0.04760000
C       -1.93220000      -2.05330000       0.00340000
C       -2.49780000      -0.30770000       1.00740000
N       -2.54570000       0.37750000       2.06380000
O       -3.81920000       0.29700000       2.68360000
H       -0.54590000       1.58960000       0.95160000
H        0.46520000      -0.18950000      -0.98520000
H        0.54130000      -0.49270000       0.75720000
H       -2.96660000       0.70380000      -1.17610000
H       -2.48080000      -0.81510000      -2.04070000
H       -4.27810000      -1.56470000       0.10940000
H       -1.78040000      -2.62730000      -0.91480000
H       -1.68050000      -2.63030000       0.89530000
H       -3.69450000       0.84800000       3.46350000
