21
Properties=species:S:1:pos:R:3 gdb_120091=T pbc="F F F"
C       -0.62280000       1.54800000       0.01410000
C       -0.36320000       0.05240000       0.21120000
C        0.85870000      -0.21810000       1.09560000
N        1.05350000      -1.66410000       1.24560000
C        2.23540000      -2.46490000       1.17410000
C        3.44040000      -1.97490000       2.06300000
N        3.07290000      -0.68540000       2.69820000
C        2.57750000      -1.96730000       3.25740000
C        1.35210000      -2.45710000       2.39680000
H        0.23320000       2.04200000      -0.46000000
H       -1.49810000       1.72180000      -0.61930000
H       -0.80080000       2.05120000       0.97150000
H       -1.24070000      -0.42730000       0.66180000
H       -0.21410000      -0.43640000      -0.75940000
H        1.75230000       0.23660000       0.65740000
H        0.72640000       0.24570000       2.07770000
H        2.34460000      -3.21390000       0.39600000
H        4.47140000      -2.28350000       1.95180000
H        3.86780000      -0.40030000       3.27060000
H        2.79400000      -2.26870000       4.27370000
H        0.64320000      -3.19880000       2.75120000
