20
Properties=species:S:1:pos:R:3 gdb_67655=T pbc="F F F"
C       -0.10120000       1.49760000       0.01000000
C        0.07680000       0.00820000      -0.02150000
C       -0.15550000      -0.81430000      -1.24120000
C        0.61240000      -2.09880000      -1.47060000
C        0.83340000      -2.61050000      -0.04370000
C        1.89800000      -1.74120000       0.69130000
C        0.75410000      -0.79860000       1.11140000
C       -0.29790000      -1.88060000       0.78500000
N       -1.10440000      -0.95380000      -0.10720000
H        0.84900000       2.00730000      -0.19080000
H       -0.82610000       1.81980000      -0.74350000
H       -0.46160000       1.83000000       0.98980000
H       -0.57520000      -0.29550000      -2.09930000
H       -0.00920000      -2.78770000      -2.05470000
H        1.55250000      -1.95220000      -2.01260000
H        0.92730000      -3.69400000       0.03250000
H        2.32230000      -2.25640000       1.55800000
H        2.71340000      -1.33430000       0.08430000
H        0.78810000      -0.27080000       2.06540000
H       -0.88120000      -2.43070000       1.52020000
