14
Properties=species:S:1:pos:R:3 gdb_42177=T pbc="F F F"
O        0.01610000       0.12830000      -0.70350000
C       -0.05380000       1.22520000      -0.20010000
C        1.17630000       1.89350000       0.26490000
N        2.16970000       2.37210000       0.61200000
C       -1.33450000       1.97080000      -0.01280000
C       -2.39450000       1.68530000      -1.09960000
C       -2.56130000       1.06450000       0.23140000
C       -1.29230000       3.26680000       0.59700000
C       -1.25420000       4.35370000       1.10870000
H       -3.01350000       2.53130000      -1.37040000
H       -2.05210000       1.05760000      -1.91380000
H       -2.33360000       0.00990000       0.33240000
H       -3.29980000       1.46580000       0.91400000
H       -1.20650000       5.31300000       1.56230000
