17
Properties=species:S:1:pos:R:3 gdb_10031=T pbc="F F F"
C        0.07380000       1.55810000       0.03430000
N       -0.16940000       0.12260000      -0.10600000
C        0.61330000      -0.49990000      -1.16000000
C        2.11880000      -0.64880000      -0.83810000
O        2.58600000      -0.42310000       0.24600000
C        0.14260000      -1.84680000      -1.49500000
C       -0.17350000      -2.98280000      -1.74010000
C       -0.59130000      -4.34320000      -2.04440000
H        1.12390000       1.82990000       0.21720000
H       -0.26270000       2.07100000      -0.87420000
H       -0.52680000       1.93630000       0.86600000
H        0.05070000      -0.34470000       0.76820000
H        0.54280000       0.13290000      -2.05870000
H        2.74010000      -1.01780000      -1.68410000
H       -0.49380000      -4.55770000      -3.11420000
H        0.01220000      -5.07770000      -1.50030000
H       -1.63920000      -4.50240000      -1.76800000
