17
Properties=species:S:1:pos:R:3 gdb_106076=T pbc="F F F"
C       -0.42590000       1.38280000      -0.01270000
N        0.25680000       0.09990000      -0.15770000
C        0.75350000      -0.45330000       1.03460000
C        1.08060000      -1.83950000       1.43410000
C        2.62920000      -1.92720000       1.40190000
N        3.04430000      -0.61130000       2.00920000
C        1.95810000       0.03500000       1.94480000
O        1.16190000       0.26070000       3.08240000
C        0.30900000      -0.75740000       2.40350000
H        0.27840000       2.12070000       0.38470000
H       -0.75620000       1.72770000      -0.99570000
H       -1.29590000       1.35190000       0.66200000
H       -0.30320000      -0.57260000      -0.66760000
H        0.45620000      -2.68030000       1.13320000
H        3.03790000      -2.68580000       2.07550000
H        3.00430000      -2.12710000       0.38720000
H       -0.63700000      -0.96070000       2.89150000
