18
Properties=species:S:1:pos:R:3 gdb_19530=T pbc="F F F"
C        0.25270000       1.22750000       0.19150000
O       -0.37960000       0.09680000      -0.37340000
C        0.41840000      -0.56580000      -1.29660000
C        1.41510000      -1.62930000      -0.88910000
C        1.28650000      -2.23580000       0.49790000
O       -0.07510000      -2.59970000       0.67210000
C       -0.69330000      -2.78200000      -0.59500000
C        0.12420000      -1.99870000      -1.60840000
H        1.18080000       0.95860000       0.71500000
H        0.49470000       1.97940000      -0.57580000
H       -0.44830000       1.66400000       0.90630000
H        0.72200000       0.05620000      -2.14240000
H        2.38080000      -1.67150000      -1.38060000
H        1.95010000      -3.11340000       0.57200000
H        1.54430000      -1.55070000       1.31360000
H       -0.70730000      -3.84550000      -0.88340000
H       -1.72770000      -2.43490000      -0.50400000
H        0.10670000      -2.32570000      -2.64160000
