19
Properties=species:S:1:pos:R:3 gdb_121654=T pbc="F F F"
C        0.39760000       1.33870000       0.19170000
C        0.72220000      -0.13620000       0.03260000
O        0.47130000      -0.50600000      -1.31090000
C        0.72780000      -1.85110000      -1.56640000
C        0.37720000      -2.17740000      -3.01190000
O       -0.17110000      -1.40650000      -3.75910000
C        0.72580000      -3.56740000      -3.47760000
C        2.11730000      -4.06180000      -3.44030000
O        1.15690000      -4.51360000      -2.49560000
H        1.01920000       1.94200000      -0.47570000
H       -0.65100000       1.52740000      -0.05390000
H        0.57870000       1.65870000       1.22210000
H        1.77700000      -0.33310000       0.28990000
H        0.10620000      -0.74650000       0.71450000
H        1.78120000      -2.11940000      -1.36980000
H        0.13150000      -2.52410000      -0.92320000
H        0.06480000      -3.95170000      -4.25280000
H        2.42930000      -4.79260000      -4.18420000
H        2.90840000      -3.42660000      -3.04560000
