17
Properties=species:S:1:pos:R:3 gdb_4048=T pbc="F F F"
C       -0.03030000       1.48340000       0.04960000
C        0.00230000      -0.00720000      -0.03590000
C       -0.01320000      -0.75680000      -1.15100000
C        0.03060000      -2.17770000      -0.82670000
C        0.08070000      -2.32380000       0.68710000
C        0.06000000      -0.86470000       1.21070000
N        0.03120000      -3.19990000      -1.59520000
O       -0.01960000      -2.81950000      -2.95330000
H        0.85760000       1.86520000       0.57000000
H       -0.07540000       1.94710000      -0.93870000
H       -0.89730000       1.82350000       0.63080000
H       -0.05280000      -0.38650000      -2.16590000
H       -0.77190000      -2.90380000       1.05050000
H        0.98250000      -2.85910000       0.99640000
H        0.94740000      -0.62360000       1.81010000
H       -0.80190000      -0.66670000       1.86080000
H       -0.01310000      -3.67270000      -3.39860000
