15
Properties=species:S:1:pos:R:3 gdb_132760=T pbc="F F F"
C       -0.01610000       1.53850000       0.00470000
C        0.00290000       0.03420000       0.01280000
C        0.07220000      -0.69940000      -1.17120000
F        0.12150000      -0.01270000      -2.32110000
C        0.09230000      -2.08450000      -1.21470000
C        0.04070000      -2.78720000      -0.01340000
C       -0.02930000      -2.10720000       1.19800000
C       -0.04660000      -0.71880000       1.18430000
F       -0.11410000      -0.07030000       2.35550000
H        0.88360000       1.94010000      -0.47270000
H       -0.87290000       1.91740000      -0.56160000
H       -0.07260000       1.92830000       1.02100000
H        0.14720000      -2.58570000      -2.17310000
H        0.05510000      -3.87110000      -0.02260000
H       -0.07060000      -2.62680000       2.14720000
