21
Properties=species:S:1:pos:R:3 gdb_94237=T pbc="F F F"
C       -0.11640000       1.54560000      -0.08680000
C        0.08290000       0.03950000      -0.04170000
C        1.20130000      -0.61690000      -0.89970000
C        1.48380000      -1.59150000       0.27330000
C        0.73950000      -0.59990000       1.22170000
O        1.62310000       0.34410000       1.79800000
C       -0.18980000      -1.18350000       2.28710000
C        0.52580000      -1.85950000       3.43150000
O        1.71550000      -1.78980000       3.64060000
H        0.81010000       2.06420000       0.16970000
H       -0.42670000       1.86190000      -1.08880000
H       -0.88930000       1.87230000       0.61810000
H       -0.86730000      -0.47370000      -0.23490000
H        0.91060000      -1.04930000      -1.85970000
H        2.03390000       0.07260000      -1.05910000
H        0.94850000      -2.53960000       0.16100000
H        2.52500000      -1.79930000       0.52770000
H        2.13930000      -0.14640000       2.45300000
H       -0.80700000      -0.38640000       2.73120000
H       -0.89970000      -1.90320000       1.85790000
H       -0.12590000      -2.44640000       4.11610000
