21
Properties=species:S:1:pos:R:3 gdb_102682=T pbc="F F F"
C        0.00240000       1.32830000      -0.12780000
O       -0.05610000      -0.07840000      -0.00210000
C       -1.37770000      -0.62880000      -0.00460000
C       -1.83840000      -0.80660000      -1.45830000
O       -0.91250000      -1.57890000      -2.19590000
C       -1.32170000      -1.95700000       0.74890000
C       -0.80040000      -1.80370000       2.19050000
C       -0.76670000      -3.06780000       2.91490000
C       -0.74810000      -4.12270000       3.49110000
H        1.05670000       1.61080000      -0.07770000
H       -0.41050000       1.68530000      -1.08170000
H       -0.53850000       1.82600000       0.69050000
H       -2.06330000       0.06330000       0.51180000
H       -2.79980000      -1.33060000      -1.48640000
H       -1.99200000       0.18180000      -1.92140000
H       -0.04190000      -1.23190000      -1.96260000
H       -2.32720000      -2.39100000       0.76460000
H       -0.68550000      -2.65270000       0.19460000
H        0.20190000      -1.36380000       2.15800000
H       -1.43160000      -1.08890000       2.73650000
H       -0.72520000      -5.04880000       4.00940000
