16
Properties=species:S:1:pos:R:3 gdb_65596=T pbc="F F F"
O       -0.38900000       1.10730000       0.47530000
C        0.03000000      -0.14730000      -0.03230000
C        0.84220000      -0.98320000       1.01270000
C       -0.18630000      -1.86960000       1.68200000
O       -1.34130000      -1.16490000       2.14510000
C       -1.42690000      -1.86170000       0.89810000
C       -1.26100000      -0.97170000      -0.31520000
C        0.82380000       0.06210000      -1.26250000
N        1.46320000       0.24280000      -2.20840000
H        0.39270000       1.62400000       0.70230000
H        1.59850000      -1.60050000       0.51680000
H        1.35650000      -0.31710000       1.71210000
H        0.13070000      -2.71280000       2.29050000
H       -2.11920000      -2.69910000       0.87100000
H       -2.09490000      -0.28340000      -0.46920000
H       -1.14590000      -1.58530000      -1.21370000
