18
Properties=species:S:1:pos:R:3 gdb_10052=T pbc="F F F"
C       -0.01270000       1.56480000       0.05540000
C       -0.02760000       0.03870000      -0.06570000
C        0.75070000      -0.49590000      -1.29090000
C        0.92100000      -2.03040000      -1.20760000
C        1.66500000      -2.58560000      -2.33180000
C        2.27840000      -3.00960000      -3.27430000
C       -0.00460000      -0.11880000      -2.55340000
O        0.23950000       0.83180000      -3.24870000
H        1.00910000       1.93770000       0.18050000
H       -0.42950000       2.04440000      -0.83480000
H       -0.59720000       1.88940000       0.92140000
H        0.40790000      -0.40930000       0.83590000
H       -1.06360000      -0.32500000      -0.11260000
H        1.73320000      -0.01550000      -1.33840000
H        1.42510000      -2.28040000      -0.26640000
H       -0.07060000      -2.50130000      -1.15430000
H        2.81900000      -3.39250000      -4.10420000
H       -0.87100000      -0.78760000      -2.77780000
