17
Properties=species:S:1:pos:R:3 gdb_82233=T pbc="F F F"
O       -0.08920000       1.43480000       0.03570000
C        0.01670000       0.02400000      -0.04670000
C       -1.38020000      -0.58180000       0.01150000
O       -2.32610000      -0.18820000      -0.98610000
C       -1.74520000      -1.49270000      -1.08500000
C       -0.64020000      -1.66700000      -2.12580000
C       -0.10790000      -0.29750000      -2.59200000
C        0.74680000      -0.44930000      -1.32060000
O        0.60910000      -1.89660000      -1.39580000
H        0.79600000       1.79580000       0.15000000
H        0.56740000      -0.38880000       0.81410000
H       -1.81020000      -0.70900000       1.00280000
H       -2.43190000      -2.31840000      -0.91220000
H       -0.84070000      -2.45780000      -2.85120000
H        0.49540000      -0.39110000      -3.49560000
H       -0.80320000       0.53620000      -2.65410000
H        1.79350000      -0.12660000      -1.33190000
