18
Properties=species:S:1:pos:R:3 gdb_119545=T pbc="F F F"
C       -0.03800000       1.55460000       0.11920000
C       -0.12800000       0.04080000       0.11970000
O        0.84880000      -0.45920000       1.04620000
C        0.87160000      -1.81740000       1.13120000
C       -0.10850000      -2.63760000       1.99140000
C        1.36270000      -2.72330000       2.22820000
O        1.93870000      -3.63820000       1.25260000
C        1.59130000      -2.76870000       0.21590000
N        1.86640000      -2.79630000      -1.00450000
H        0.95860000       1.88010000      -0.19140000
H       -0.77210000       1.97440000      -0.57470000
H       -0.23560000       1.95460000       1.11790000
H       -1.12750000      -0.29790000       0.42970000
H        0.07540000      -0.37070000      -0.87660000
H       -0.65430000      -2.01700000       2.69660000
H       -0.64360000      -3.49530000       1.59600000
H        1.91880000      -2.54300000       3.13690000
H        2.42940000      -3.61400000      -1.24480000
