14
Properties=species:S:1:pos:R:3 gdb_13037=T pbc="F F F"
O        0.05440000      -0.00540000      -0.08430000
C       -0.03630000       1.17930000       0.01120000
C       -1.17660000       2.19820000       0.15500000
N       -0.14890000       3.20670000       0.52860000
C        0.97920000       2.33740000       0.11910000
C        2.10890000       2.17520000       1.14470000
C        2.95040000       3.36620000       1.22480000
N        3.60090000       4.32050000       1.26120000
H       -1.69370000       2.37000000      -0.79960000
H       -1.92330000       1.99220000       0.92870000
H       -0.20930000       4.08520000       0.02910000
H        1.40510000       2.57080000      -0.86780000
H        1.67790000       1.97450000       2.13060000
H        2.72570000       1.31280000       0.86730000
