17
Properties=species:S:1:pos:R:3 gdb_45517=T pbc="F F F"
O        0.04690000      -0.07290000      -0.08690000
C       -0.01960000       1.12840000      -0.00430000
N       -1.16730000       1.91550000       0.04910000
C       -0.82340000       3.32410000      -0.11270000
C       -1.39490000       4.41790000       0.80270000
C       -0.17290000       5.36960000       0.99590000
C        1.01910000       4.42790000       0.89710000
C        0.62720000       3.29790000       0.31020000
N        1.07980000       2.01270000       0.07570000
H       -1.99440000       1.51810000      -0.36800000
H       -0.91570000       3.62530000      -1.17020000
H       -2.27340000       4.92200000       0.39080000
H       -1.66700000       3.96960000       1.76330000
H       -0.15740000       6.14910000       0.22000000
H       -0.21190000       5.89320000       1.95690000
H        2.00260000       4.65390000       1.28640000
H        1.96570000       1.64850000       0.38710000
