21
Properties=species:S:1:pos:R:3 gdb_38370=T pbc="F F F"
C       -0.04400000       1.54870000       0.14980000
C        1.49960000       1.62670000      -0.01270000
C        1.56950000       0.07770000       0.17280000
C        0.02000000       0.00380000      -0.00670000
C       -0.47890000      -0.56060000      -1.34240000
O        0.39580000      -0.44660000      -2.45550000
C        0.73560000       0.82630000      -2.93610000
O        1.97360000       1.28370000      -2.46190000
C        2.01060000       2.16990000      -1.35270000
H       -0.37110000       1.85070000       1.14820000
H       -0.64960000       2.09820000      -0.57940000
H        1.99420000       2.20650000       0.77260000
H        2.15790000      -0.46160000      -0.57020000
H        1.89230000      -0.21290000       1.17480000
H       -0.50890000      -0.53890000       0.78290000
H       -0.63730000      -1.63980000      -1.24670000
H       -1.45570000      -0.10690000      -1.58110000
H        0.86450000       0.70470000      -4.01630000
H       -0.06520000       1.55720000      -2.73790000
H        1.46800000       3.09970000      -1.59320000
H        3.07100000       2.42750000      -1.26200000
