20
Properties=species:S:1:pos:R:3 gdb_105045=T pbc="F F F"
C        0.20950000       0.91920000       1.14420000
C       -0.00390000      -0.04300000      -0.00870000
C        0.67850000       0.20580000      -1.30320000
N        1.11550000      -0.90510000      -0.43410000
C       -1.34050000      -0.74630000      -0.00840000
C       -1.52540000      -1.82750000       1.05070000
O       -2.73790000      -2.52860000       0.88320000
C       -2.51850000      -0.08330000      -0.58090000
O       -1.85400000      -1.14560000      -1.28810000
H        1.17610000       1.42420000       1.05020000
H       -0.57060000       1.68760000       1.16960000
H        0.19520000       0.40080000       2.10940000
H        0.19920000      -0.10660000      -2.22430000
H        1.31030000       1.08740000      -1.37890000
H        1.96190000      -0.64110000       0.06540000
H       -0.65340000      -2.49710000       1.00000000
H       -1.54800000      -1.38000000       2.05040000
H       -2.77680000      -2.75350000      -0.05580000
H       -3.50560000      -0.33530000      -0.20200000
H       -2.41300000       0.90050000      -1.03500000
