19
Properties=species:S:1:pos:R:3 gdb_110360=T pbc="F F F"
C        0.27830000       0.97740000       0.30650000
O       -0.36240000      -0.09450000      -0.35810000
C        0.43590000      -0.66950000      -1.34830000
C        1.47850000      -1.70530000      -1.04180000
C        0.16640000      -2.06290000      -1.78980000
C       -0.29740000      -2.91620000      -0.61230000
O       -0.30960000      -4.28100000      -1.00320000
C        1.03120000      -2.55330000       0.16590000
O        1.82470000      -3.67630000       0.43740000
H        1.20490000       0.65320000       0.80090000
H        0.52480000       1.79290000      -0.39030000
H       -0.41910000       1.35350000       1.05840000
H        0.70410000       0.02090000      -2.15110000
H        2.49740000      -1.64890000      -1.40730000
H       -0.00900000      -2.32680000      -2.82600000
H       -1.24530000      -2.63070000      -0.14370000
H       -0.63920000      -4.79400000      -0.25750000
H        0.90890000      -2.00700000       1.10490000
H        1.62000000      -4.31480000      -0.26160000
