20
Properties=species:S:1:pos:R:3 gdb_110624=T pbc="F F F"
C       -0.45030000       1.66840000       0.33790000
C       -0.30030000       0.21640000       0.00180000
C       -0.93400000      -0.90470000       0.79350000
C       -1.96810000      -1.97980000       0.47280000
O       -2.68090000      -2.21080000       1.68360000
C        0.56010000      -0.89210000       0.59820000
C        1.01040000      -1.19400000      -0.83880000
C       -0.05750000      -1.43950000      -1.83180000
N        0.21270000      -0.05220000      -1.40960000
H        0.43700000       2.22970000       0.02900000
H       -1.31330000       2.09870000      -0.18460000
H       -0.59930000       1.80980000       1.41240000
H       -1.16860000      -0.51250000       1.78270000
H       -2.65430000      -1.64210000      -0.32030000
H       -1.48150000      -2.90370000       0.12910000
H       -3.33470000      -2.89690000       1.51840000
H        1.26060000      -0.85050000       1.42320000
H        2.06030000      -1.30200000      -1.09250000
H        0.27030000      -1.61210000      -2.85450000
H       -0.99120000      -1.92500000      -1.58920000
