21
Properties=species:S:1:pos:R:3 gdb_107206=T pbc="F F F"
C       -0.32440000       1.46590000       0.04980000
C        0.21120000       0.03940000      -0.12750000
C        0.87390000      -0.49690000       1.12210000
C        2.20260000       0.11670000       1.58960000
N        3.06330000      -0.95020000       2.15520000
C        2.63340000      -1.52890000       3.43190000
C        2.26550000      -2.19820000       2.15760000
C        0.91940000      -1.93780000       1.52100000
N       -0.03830000      -1.01960000       2.15340000
H        0.48110000       2.17480000       0.27100000
H       -0.82920000       1.81260000      -0.85690000
H       -1.04350000       1.50420000       0.87400000
H       -0.61510000      -0.62950000      -0.38960000
H        0.92790000       0.00750000      -0.95840000
H        2.72800000       0.54280000       0.72770000
H        2.06630000       0.92670000       2.31650000
H        3.44110000      -1.93060000       4.03930000
H        1.86500000      -1.02640000       4.01580000
H        2.77780000      -3.10780000       1.85520000
H        0.47740000      -2.73420000       0.92980000
H        0.24570000      -0.76440000       3.09410000
