15
Properties=species:S:1:pos:R:3 gdb_74169=T pbc="F F F"
N        0.07260000       1.32600000      -0.03900000
C       -0.05710000      -0.02330000      -0.02060000
C       -1.17100000      -0.78400000       0.09170000
C       -0.84190000      -2.20370000       0.09290000
O       -1.58800000      -3.14930000       0.21590000
C        0.68290000      -2.32960000      -0.12510000
C        1.21240000      -0.88030000      -0.02990000
C        2.13410000      -0.48100000      -1.09450000
N        2.85420000      -0.12650000      -1.92670000
H        0.92520000       1.72000000      -0.40690000
H       -0.75260000       1.88810000      -0.17300000
H       -2.18570000      -0.41730000       0.17010000
H        1.13100000      -2.99200000       0.61750000
H        0.86730000      -2.76400000      -1.11110000
H        1.73810000      -0.72300000       0.92070000
