19
Properties=species:S:1:pos:R:3 gdb_89919=T pbc="F F F"
O       -0.01310000       1.40260000      -0.19880000
C       -0.00890000       0.00030000      -0.04480000
C        0.33710000      -0.60000000       1.36500000
C       -1.06290000      -1.23300000       1.40180000
C       -1.36170000      -2.61650000       1.92040000
C       -1.33620000      -2.66210000       3.43710000
O       -0.66370000      -3.41560000       4.09180000
C       -2.09220000      -0.14000000       1.29790000
C       -1.40340000      -0.60350000       0.04240000
H        0.89990000       1.70750000      -0.20830000
H        0.58930000      -0.48080000      -0.82970000
H        1.14770000      -1.33210000       1.32390000
H        0.55310000       0.13240000       2.14940000
H       -2.37100000      -2.91360000       1.60050000
H       -0.65150000      -3.35890000       1.54170000
H       -2.00320000      -1.91370000       3.92440000
H       -3.12610000      -0.45880000       1.38930000
H       -1.89150000       0.85210000       1.69110000
H       -1.95580000      -1.02640000      -0.78820000
