20
Properties=species:S:1:pos:R:3 gdb_108604=T pbc="F F F"
C        0.20840000       1.60220000      -0.14450000
C       -0.01580000       0.08970000       0.04770000
C        0.63990000      -0.45800000       1.27700000
C        0.09210000      -0.92870000       2.40790000
C       -1.33650000      -1.06860000       2.81700000
C        1.17810000      -1.34860000       3.31090000
N        1.03890000      -1.84380000       4.46910000
O        2.38100000      -1.11660000       2.69130000
C        2.13910000      -0.55600000       1.40130000
H        1.27160000       1.84370000      -0.23900000
H       -0.29340000       1.95170000      -1.05150000
H       -0.18880000       2.16640000       0.70450000
H       -1.09000000      -0.11590000       0.08290000
H        0.37170000      -0.44060000      -0.83320000
H       -1.56060000      -2.11060000       3.06760000
H       -1.53130000      -0.48750000       3.72450000
H       -2.02440000      -0.73770000       2.03560000
H        1.94820000      -2.05110000       4.88420000
H        2.58120000      -1.20870000       0.63510000
H        2.64240000       0.41810000       1.33670000
