19
Properties=species:S:1:pos:R:3 gdb_37218=T pbc="F F F"
C       -0.09510000       1.33580000       0.17670000
C        1.25570000       0.78870000      -0.05040000
C        1.80130000      -0.00330000       1.15060000
C        2.18170000       0.54380000       2.54350000
C        1.27910000      -0.10630000       3.63150000
C        0.69200000      -1.47580000       3.21680000
N       -0.14510000      -1.35800000       2.00200000
C        0.45670000      -0.68210000       1.13150000
N        0.01430000      -0.11880000      -0.13090000
H       -0.41790000       1.62700000       1.17320000
H       -0.55170000       1.90040000      -0.63010000
H        1.82110000       1.01280000      -0.94770000
H        2.56540000      -0.70050000       0.79040000
H        3.23360000       0.32510000       2.74990000
H        2.07660000       1.63250000       2.57400000
H        1.83670000      -0.21370000       4.56730000
H        0.43000000       0.55330000       3.84510000
H        1.49710000      -2.20670000       3.05200000
H        0.06810000      -1.87050000       4.02290000
