18
Properties=species:S:1:pos:R:3 gdb_27988=T pbc="F F F"
C       -0.03800000       1.53900000       0.01680000
C       -0.00770000       0.04250000       0.00410000
C       -0.00130000      -0.76720000      -1.09060000
N        0.02980000      -2.09450000      -0.65980000
C        0.04410000      -3.18970000      -1.50940000
O        0.03120000      -3.11320000      -2.71230000
C        0.04340000      -2.11960000       0.74230000
C        0.07660000      -3.38250000       1.53950000
C        0.02070000      -0.82190000       1.15970000
H        0.83970000       1.95400000       0.52600000
H       -0.05670000       1.94260000      -0.99900000
H       -0.92110000       1.91820000       0.54430000
H       -0.01550000      -0.55600000      -2.14640000
H        0.06860000      -4.14590000      -0.96070000
H        0.97090000      -3.98490000       1.34050000
H        0.08160000      -3.12920000       2.60210000
H       -0.79620000      -4.02070000       1.35730000
H        0.02380000      -0.50230000       2.19220000
