19
Properties=species:S:1:pos:R:3 gdb_89104=T pbc="F F F"
O       -0.59410000       1.25040000      -0.64280000
C       -0.24170000      -0.03670000      -0.23760000
C       -0.19480000      -0.38390000       1.23570000
C       -1.31120000      -0.90900000       0.37200000
O       -2.55670000      -0.29560000       0.56030000
C       -3.44600000      -0.51710000      -0.52900000
C       -4.77200000       0.16640000      -0.18140000
C       -5.77320000      -0.02160000      -1.22210000
C       -6.57910000      -0.19360000      -2.09660000
H       -1.43450000       1.44880000      -0.20920000
H        0.49370000      -0.47090000      -0.90630000
H        0.54900000      -1.08460000       1.59910000
H       -0.45630000       0.40840000       1.92970000
H       -1.36320000      -1.97330000       0.14380000
H       -3.03060000      -0.10900000      -1.45970000
H       -3.60570000      -1.59520000      -0.67450000
H       -5.13230000      -0.23510000       0.77310000
H       -4.59000000       1.23590000      -0.01970000
H       -7.30090000      -0.33690000      -2.86200000
