11
Properties=species:S:1:pos:R:3 gdb_3690=T pbc="F F F"
C       -0.00660000       1.48810000       0.01760000
C       -0.01170000      -0.00720000      -0.01690000
N        0.14490000      -0.62290000      -1.19240000
C        0.12380000      -1.94420000      -1.10230000
N       -0.03480000      -2.65040000       0.02270000
N       -0.18410000      -1.97520000       1.14820000
N       -0.17550000      -0.65570000       1.15010000
H        0.93790000       1.86580000      -0.38610000
H       -0.80510000       1.87700000      -0.62200000
H       -0.14260000       1.84520000       1.03800000
H        0.24470000      -2.52180000      -2.01540000
