13
Properties=species:S:1:pos:R:3 gdb_131580=T pbc="F F F"
O        0.00470000       1.42870000       0.00940000
C       -0.01330000       0.01110000       0.00230000
C       -1.39220000      -0.45970000       0.01270000
C       -2.51960000      -0.88150000       0.02090000
C       -3.84140000      -1.38630000       0.03060000
N       -4.89840000      -0.60140000       0.04090000
O       -5.96410000      -1.50110000       0.04770000
C       -5.42810000      -2.72330000       0.04070000
N       -4.13630000      -2.74220000       0.03010000
H        0.92640000       1.70630000       0.00130000
H        0.48910000      -0.39920000      -0.88930000
H        0.50540000      -0.40820000       0.88030000
H       -6.11010000      -3.56100000       0.04450000
