18
Properties=species:S:1:pos:R:3 gdb_45360=T pbc="F F F"
N       -0.02950000       1.30960000      -0.45950000
C        0.00920000       0.11070000      -0.06040000
C       -1.27720000      -0.68090000       0.13450000
C       -1.09900000      -1.93630000       1.00260000
C       -0.60000000      -1.58340000       2.41290000
O        0.82690000      -1.42090000       2.27680000
C        1.18680000      -1.72370000       0.95610000
C        0.12330000      -2.69950000       0.46530000
O        1.20010000      -0.53810000       0.14320000
H        0.92010000       1.67390000      -0.56170000
H       -2.02870000      -0.00010000       0.54120000
H       -1.63080000      -0.97770000      -0.86030000
H       -2.01820000      -2.52480000       1.02770000
H       -1.02960000      -0.65510000       2.80320000
H       -0.79640000      -2.38930000       3.13070000
H        2.21940000      -2.07220000       0.94500000
H        0.25130000      -3.67200000       0.94920000
H        0.13140000      -2.82940000      -0.61840000
