19
Properties=species:S:1:pos:R:3 gdb_126953=T pbc="F F F"
C        0.05940000       1.55550000      -0.03010000
C       -0.13860000       0.04820000      -0.15810000
N        0.85150000      -0.52110000      -1.06240000
C        0.82250000      -1.88560000      -1.31910000
N        1.21990000      -2.34950000      -2.49800000
N        1.14970000      -3.71340000      -2.35250000
C        0.68650000      -4.08780000      -1.13890000
N        0.45240000      -5.43110000      -0.83150000
C        0.46720000      -2.92870000      -0.41900000
H        1.06860000       1.78470000       0.32420000
H       -0.08180000       2.05430000      -0.99600000
H       -0.66340000       1.98180000       0.67130000
H       -0.01270000      -0.41850000       0.82600000
H       -1.17220000      -0.16870000      -0.47800000
H        0.95260000       0.00150000      -1.92380000
H        1.25600000      -4.29220000      -3.16650000
H        1.22940000      -6.03520000      -1.07280000
H        0.22930000      -5.55580000       0.14680000
H        0.14110000      -2.85460000       0.60480000
