22
Properties=species:S:1:pos:R:3 gdb_91938=T pbc="F F F"
C        0.09450000       1.59960000      -0.12950000
C        0.10030000       0.07770000      -0.00110000
C        0.69460000      -0.66270000      -1.22810000
C        1.18440000      -1.99660000      -0.67780000
N        2.49670000      -1.87720000      -0.00740000
C        1.26190000      -1.90610000       0.80030000
C        0.79340000      -0.52580000       1.27530000
C        1.93810000       0.31130000       1.84800000
O       -0.17630000      -0.78490000       2.29780000
H        1.10670000       2.00010000      -0.24750000
H       -0.48680000       1.91000000      -1.00420000
H       -0.35690000       2.08140000       0.74570000
H       -0.93710000      -0.26440000       0.09950000
H       -0.06050000      -0.79430000      -2.00900000
H        1.53160000      -0.10950000      -1.66880000
H        0.94150000      -2.92460000      -1.18510000
H        2.94210000      -2.79080000       0.03750000
H        1.07050000      -2.74470000       1.46130000
H        2.72520000       0.46060000       1.10640000
H        1.58060000       1.29220000       2.18120000
H        2.37300000      -0.20340000       2.70980000
H       -0.43880000       0.06190000       2.67290000
