18
Properties=species:S:1:pos:R:3 gdb_47369=T pbc="F F F"
O       -0.04640000      -0.06170000       0.15240000
C       -0.04780000       1.14260000       0.06250000
C       -1.32040000       1.97600000       0.09070000
C       -1.31140000       3.05280000      -1.00630000
N       -0.08090000       3.84090000      -0.90480000
C        1.13090000       3.04600000      -1.15160000
C        1.23580000       1.95630000      -0.05560000
C        1.19270000       2.45650000      -2.50000000
C        1.21330000       1.99570000      -3.61090000
H       -2.18250000       1.31140000       0.00110000
H       -1.36410000       2.47500000       1.06790000
H       -1.42540000       2.56820000      -1.98990000
H       -2.16130000       3.72860000      -0.87200000
H       -0.11300000       4.61060000      -1.56500000
H        1.98690000       3.72160000      -1.03880000
H        1.39350000       2.47030000       0.90050000
H        2.07400000       1.28270000      -0.23950000
H        1.24190000       1.58370000      -4.58960000
