16
Properties=species:S:1:pos:R:3 gdb_9134=T pbc="F F F"
C       -0.66610000       1.17850000      -0.15460000
C        0.57680000       0.30340000       0.09010000
C        1.04530000      -0.37370000      -1.11390000
C        1.41570000      -0.92400000      -2.11750000
C        1.86670000      -1.59070000      -3.33940000
N        1.23220000      -2.90710000      -3.49030000
C        1.65450000      -0.70160000      -4.51320000
N        1.47930000      -0.06290000      -5.46060000
H       -0.45650000       1.95300000      -0.89680000
H       -1.50030000       0.57500000      -0.52210000
H       -0.97500000       1.66450000       0.77520000
H        1.39020000       0.91990000       0.49290000
H        0.35710000      -0.44700000       0.85990000
H        2.94980000      -1.76180000      -3.27140000
H        0.22460000      -2.78850000      -3.54460000
H        1.52930000      -3.32560000      -4.36780000
