17
Properties=species:S:1:pos:R:3 gdb_102449=T pbc="F F F"
O        0.00330000       1.36390000       0.42760000
C       -0.03610000      -0.01690000       0.16530000
C       -1.48120000      -0.53860000      -0.06640000
C       -2.04470000      -0.09700000      -1.41710000
O       -2.01870000       1.33200000      -1.45970000
C       -1.53040000      -2.05390000       0.04470000
O       -1.75440000      -2.78080000      -0.90140000
C       -1.28040000      -2.59720000       1.37030000
C       -1.08500000      -3.03980000       2.47260000
H       -0.51700000       1.78500000      -0.27060000
H        0.57550000      -0.29160000      -0.71150000
H        0.39900000      -0.51670000       1.03650000
H       -2.08960000      -0.11950000       0.74560000
H       -1.43600000      -0.52840000      -2.22200000
H       -3.06890000      -0.47220000      -1.54150000
H       -2.23100000       1.61480000      -2.35370000
H       -0.91220000      -3.44390000       3.44080000
