19
Properties=species:S:1:pos:R:3 gdb_57651=T pbc="F F F"
C        0.30650000       1.47220000       0.36990000
C       -0.03300000       0.00600000       0.03240000
O        0.40140000      -0.86320000       1.06810000
C       -1.52970000      -0.20970000      -0.27900000
C       -2.43710000       0.29730000       0.81860000
C       -3.38730000      -0.57640000       1.51820000
O       -2.15730000      -0.19980000       2.14750000
C        0.80470000      -0.38470000      -1.18560000
O        0.49790000      -0.15500000      -2.32620000
H        1.38330000       1.57740000       0.53110000
H        0.00550000       2.14520000      -0.43880000
H       -0.19770000       1.77240000       1.29290000
H       -0.26940000      -0.82820000       1.76430000
H       -1.77460000       0.28560000      -1.22350000
H       -1.68290000      -1.28420000      -0.42380000
H       -2.65520000       1.36460000       0.80950000
H       -4.28040000      -0.15510000       1.97560000
H       -3.46070000      -1.62270000       1.22680000
H        1.75490000      -0.89400000      -0.91290000
