18
Properties=species:S:1:pos:R:3 gdb_41807=T pbc="F F F"
C       -0.06230000       1.46160000      -0.42100000
O        1.04050000       2.08680000       0.23460000
C        1.94650000       1.08840000       0.70880000
C        1.47890000      -0.24010000       0.10460000
C       -0.03800000      -0.00800000       0.03150000
N       -0.74180000      -0.19250000       1.28380000
C       -0.35550000       0.19070000       2.42290000
O        0.74270000       0.81710000       2.91640000
C        1.96960000       1.08550000       2.23020000
H       -0.98490000       1.97180000      -0.13250000
H        0.05770000       1.52980000      -1.51240000
H        2.96220000       1.35320000       0.38520000
H        1.89120000      -0.37640000      -0.90030000
H        1.74740000      -1.10960000       0.70850000
H       -0.51530000      -0.65080000      -0.71310000
H       -1.02170000       0.03030000       3.27160000
H        2.70910000       0.34770000       2.56910000
H        2.28080000       2.07060000       2.58990000
