18
Properties=species:S:1:pos:R:3 gdb_112133=T pbc="F F F"
C        0.07640000       1.49540000       0.16910000
C       -0.01390000      -0.02190000      -0.01120000
C       -1.44070000      -0.54900000      -0.01040000
C       -1.58880000      -2.06500000      -0.18060000
C       -2.71240000      -2.43070000       0.78020000
O       -3.35030000      -3.44460000       0.82120000
C       -2.86730000      -1.23580000       1.70840000
N       -3.61800000      -1.20890000       2.72280000
O       -2.05260000      -0.23900000       1.27850000
H        1.11880000       1.82590000       0.16970000
H       -0.44050000       2.02130000      -0.64110000
H       -0.37950000       1.80230000       1.11370000
H        0.44860000      -0.31950000      -0.96070000
H        0.54190000      -0.53380000       0.78440000
H       -2.03250000      -0.02120000      -0.76990000
H       -1.80980000      -2.38240000      -1.20080000
H       -0.68060000      -2.58750000       0.14590000
H       -3.55480000      -0.30540000       3.19780000
