18
Properties=species:S:1:pos:R:3 gdb_91571=T pbc="F F F"
O        0.27480000       1.32800000      -0.04180000
C        0.20060000      -0.05750000       0.11040000
C        0.21790000      -0.66070000       1.57190000
C       -1.17490000      -1.22540000       1.30060000
N       -2.02000000      -0.05000000       0.94710000
C       -1.18780000      -0.70210000      -0.09270000
C       -1.78100000      -1.25560000      -1.36320000
C       -2.20950000      -0.22110000      -2.30280000
C       -2.56240000       0.63450000      -3.06850000
H       -0.52240000       1.67570000       0.38170000
H        0.97260000      -0.49890000      -0.52520000
H        0.98650000      -1.42600000       1.70160000
H        0.28120000       0.07320000       2.37880000
H       -1.62910000      -2.12470000       1.69880000
H       -2.97850000      -0.37370000       0.82170000
H       -1.04310000      -1.90740000      -1.84960000
H       -2.63460000      -1.90080000      -1.11200000
H       -2.86690000       1.39370000      -3.74560000
