14
Properties=species:S:1:pos:R:3 gdb_3740=T pbc="F F F"
C        0.01980000       1.41470000       0.05210000
N       -0.03180000      -0.02760000      -0.01970000
C       -0.03460000      -0.80270000      -1.14310000
C       -0.01040000      -2.11920000      -0.71860000
N       -0.08880000      -3.28770000      -1.49630000
C        0.01020000      -2.02510000       0.69130000
N        0.00200000      -0.75680000       1.10350000
H        1.01710000       1.79530000      -0.19740000
H       -0.70890000       1.85550000      -0.63440000
H       -0.22560000       1.70170000       1.07430000
H       -0.06140000      -0.36970000      -2.13050000
H        0.32810000      -3.17750000      -2.41170000
H        0.34300000      -4.07950000      -1.03740000
H        0.02050000      -2.82850000       1.41390000
