22
Properties=species:S:1:pos:R:3 gdb_59117=T pbc="F F F"
C        0.11390000       1.56980000      -0.00920000
C        0.04940000       0.03490000      -0.01030000
C        0.75050000      -0.52910000      -1.25520000
C        0.65190000      -0.54710000       1.27460000
C       -0.15500000      -0.23710000       2.54040000
C       -0.90690000      -1.51020000       2.45490000
C        0.28840000      -2.03550000       1.56740000
C        0.99490000      -2.28790000       2.90730000
N        0.06110000      -1.31620000       3.57110000
H        1.15180000       1.91720000       0.05980000
H       -0.31060000       1.97970000      -0.93150000
H       -0.43840000       2.00070000       0.83110000
H       -1.00900000      -0.26070000      -0.04710000
H        1.81170000      -0.25280000      -1.26380000
H        0.69090000      -1.62080000      -1.29970000
H        0.29940000      -0.13340000      -2.17110000
H        1.72640000      -0.31610000       1.31030000
H       -0.47260000       0.72120000       2.93000000
H       -1.94610000      -1.77960000       2.58740000
H        0.25520000      -2.77320000       0.76770000
H        0.80720000      -3.28010000       3.32590000
H        2.06190000      -2.04600000       2.98610000
