20
Properties=species:S:1:pos:R:3 gdb_104628=T pbc="F F F"
C       -0.31890000       1.44370000      -0.18910000
C        0.02510000      -0.04520000      -0.10230000
C        0.87660000      -0.53430000      -1.27450000
C        1.00760000      -2.06790000      -1.48600000
C        0.43780000      -1.78500000      -2.89290000
C       -0.82240000      -2.49610000      -3.33290000
O        0.19570000      -0.39130000      -2.54210000
C        2.18010000       0.15970000      -1.30550000
N        3.20670000       0.69080000      -1.32070000
H        0.58220000       2.06230000      -0.14240000
H       -0.83440000       1.66230000      -1.12820000
H       -0.97270000       1.73470000       0.63750000
H        0.55990000      -0.26860000       0.82910000
H       -0.89090000      -0.64600000      -0.10380000
H        2.01330000      -2.48300000      -1.43300000
H        0.33650000      -2.63610000      -0.83850000
H        1.20380000      -1.84070000      -3.67710000
H       -1.58600000      -2.46040000      -2.55000000
H       -1.22980000      -2.02650000      -4.23350000
H       -0.60520000      -3.54460000      -3.56400000
