19
Properties=species:S:1:pos:R:3 gdb_93546=T pbc="F F F"
C       -0.61390000       1.39680000      -0.21880000
C        0.01930000       0.02060000       0.06230000
C        0.86390000      -0.47010000      -1.11400000
O        1.92340000       0.42870000      -1.46240000
C        3.05160000       0.50450000      -0.71300000
O        3.92370000       1.25700000      -1.04740000
C        3.14900000      -0.38920000       0.52080000
C        2.07520000      -0.16430000       1.56470000
C        0.76940000       0.01710000       1.37010000
H        0.15840000       2.15170000      -0.38550000
H       -1.25180000       1.35770000      -1.10790000
H       -1.22980000       1.71990000       0.62560000
H       -0.80130000      -0.70770000       0.15650000
H        1.25990000      -1.47230000      -0.91670000
H        0.24980000      -0.52610000      -2.01650000
H        3.16960000      -1.44010000       0.19950000
H        4.13050000      -0.18050000       0.94770000
H        2.44430000      -0.14010000       2.58670000
H        0.14870000       0.19400000       2.24690000
