20
Properties=species:S:1:pos:R:3 gdb_68394=T pbc="F F F"
O       -0.15610000       1.38360000       0.05450000
C        0.02960000      -0.00600000       0.03700000
C        0.88870000      -0.69720000      -1.07000000
C        1.13250000      -1.80410000      -0.00160000
C        0.95530000      -0.69840000       1.07400000
C       -0.05200000      -2.78310000       0.02060000
N       -1.37010000      -2.12450000      -0.09080000
C       -1.92530000      -1.44710000       1.08530000
C       -1.34350000      -0.65600000      -0.02790000
H        0.71150000       1.80070000       0.02780000
H        0.39730000      -0.96740000      -2.00820000
H        1.80510000      -0.13480000      -1.27580000
H        2.08250000      -2.34140000      -0.03290000
H        1.87720000      -0.11930000       1.19560000
H        0.57180000      -0.95880000       2.06200000
H        0.03810000      -3.46640000      -0.83310000
H       -0.02410000      -3.40010000       0.92740000
H       -3.00560000      -1.52340000       1.18380000
H       -1.38950000      -1.50200000       2.02860000
H       -2.00650000      -0.15250000      -0.73010000
