15
Properties=species:S:1:pos:R:3 gdb_75671=T pbc="F F F"
O        0.09460000       1.49020000       0.11350000
C       -0.01630000       0.09740000       0.04510000
C        0.15930000      -0.63380000       1.37760000
N        0.99590000      -0.69550000       2.30890000
N       -1.06970000      -1.39690000       1.27150000
C       -2.13230000      -0.36010000       1.25690000
C       -1.40490000      -0.57600000      -0.01270000
C       -1.97460000      -1.15320000      -1.18080000
C       -2.43510000      -1.59640000      -2.20020000
H        0.08130000       1.84850000      -0.78030000
H        0.63780000      -0.33880000      -0.72210000
H        1.76940000      -0.05030000       2.13540000
H       -3.12800000      -0.78330000       1.32990000
H       -1.97300000       0.55970000       1.81360000
H       -2.84790000      -2.00390000      -3.09000000
