19
Properties=species:S:1:pos:R:3 gdb_90164=T pbc="F F F"
O       -0.04210000       1.39870000      -0.19700000
C        0.00780000       0.00860000       0.02560000
C        0.26760000      -0.53520000       1.48370000
C       -1.07620000      -1.28910000       1.40730000
C       -2.21230000      -0.30450000       1.21450000
C       -1.34990000      -0.67550000       0.04730000
O       -1.77280000      -1.62360000      -0.87990000
C       -2.10700000      -2.81250000      -0.14010000
C       -1.32640000      -2.76840000       1.21540000
H        0.85670000       1.74160000      -0.16200000
H        0.66190000      -0.49700000      -0.69650000
H        1.14210000      -1.18670000       1.54930000
H        0.33040000       0.23090000       2.26280000
H       -3.21580000      -0.71420000       1.19830000
H       -2.13720000       0.68560000       1.65310000
H       -3.18940000      -2.83960000       0.04370000
H       -1.85120000      -3.67660000      -0.76010000
H       -0.36860000      -3.29190000       1.12530000
H       -1.89810000      -3.26030000       2.00860000
