23
Properties=species:S:1:pos:R:3 gdb_122688=T pbc="F F F"
O       -0.42600000       1.66740000      -0.58970000
C       -0.15040000       0.33480000      -0.20450000
C       -1.43500000      -0.44560000       0.02950000
O       -2.14960000      -0.42220000      -1.19210000
C       -3.45920000      -0.98640000      -1.13180000
C       -4.48540000      -0.01350000      -0.47620000
C       -5.42500000       0.45730000      -1.61610000
C       -4.64810000       0.15590000      -2.90920000
C       -3.94570000      -1.16870000      -2.57760000
H       -1.07260000       1.59760000      -1.30210000
H        0.45390000      -0.18720000      -0.96360000
H        0.43340000       0.37680000       0.72080000
H       -1.21650000      -1.48310000       0.33320000
H       -2.01310000       0.03210000       0.83490000
H       -3.39900000      -1.94370000      -0.59560000
H       -5.03770000      -0.48550000       0.34100000
H       -3.93940000       0.83240000      -0.04840000
H       -6.35240000      -0.12720000      -1.60350000
H       -5.70910000       1.50850000      -1.51860000
H       -5.28930000       0.09720000      -3.79290000
H       -3.89920000       0.93470000      -3.09420000
H       -3.11570000      -1.42180000      -3.24110000
H       -4.67060000      -1.99080000      -2.61230000
