16
Properties=species:S:1:pos:R:3 gdb_71555=T pbc="F F F"
C        0.12880000       1.47680000      -0.06550000
C        0.04290000      -0.01070000      -0.02690000
O        0.53440000      -0.81280000      -1.14470000
C        0.03940000      -1.80910000      -0.21370000
C        0.48280000      -1.03820000       1.06770000
N       -0.86580000      -1.00850000       1.71940000
C       -1.19730000      -0.95030000       0.26870000
C       -2.55920000      -0.92710000      -0.31630000
O       -3.57430000      -1.04820000       0.32400000
H        1.17350000       1.79450000      -0.13600000
H       -0.41410000       1.87720000      -0.92640000
H       -0.30510000       1.88700000       0.85080000
H        0.09590000      -2.86390000      -0.48560000
H        1.42250000      -1.09150000       1.61810000
H       -1.10990000      -1.92150000       2.10790000
H       -2.57030000      -0.80620000      -1.42200000
