17
Properties=species:S:1:pos:R:3 gdb_126712=T pbc="F F F"
C       -0.06060000       1.54470000      -0.24070000
C       -0.05780000       0.05880000       0.11790000
N       -1.38660000      -0.53130000       0.05390000
C       -1.88660000      -1.35420000      -0.89280000
C       -3.21040000      -1.60990000      -0.55510000
C       -3.39910000      -0.86680000       0.64020000
N       -2.29930000      -0.21960000       0.99980000
C       -4.14090000      -2.42290000      -1.23840000
C       -4.94540000      -3.11250000      -1.81130000
H        0.95030000       1.95350000      -0.15160000
H       -0.40780000       1.69980000      -1.26640000
H       -0.72030000       2.09320000       0.43540000
H        0.58050000      -0.51060000      -0.56340000
H        0.31850000      -0.08960000       1.13390000
H       -1.29120000      -1.70240000      -1.72140000
H       -4.29520000      -0.79750000       1.23820000
H       -5.65330000      -3.72060000      -2.31700000
