19
Properties=species:S:1:pos:R:3 gdb_70861=T pbc="F F F"
C       -0.08660000       1.50620000      -0.02420000
C       -0.02070000       0.00610000      -0.04240000
C        0.75580000      -0.82440000      -1.06290000
C       -0.19520000      -2.04520000      -0.72550000
O       -0.77120000      -2.74980000      -1.78750000
C        0.47030000      -2.82330000       0.39310000
C        0.44870000      -2.07690000       1.50130000
C       -0.31790000      -0.82500000       1.24350000
C       -1.12940000      -1.01990000      -0.01220000
H        0.87780000       1.94260000       0.26210000
H       -0.35090000       1.90400000      -1.01080000
H       -0.83640000       1.86250000       0.69040000
H        0.52840000      -0.46990000      -2.07260000
H        1.83620000      -0.96110000      -0.93980000
H       -0.09070000      -3.29610000      -2.19500000
H        1.01830000      -3.74550000       0.23540000
H        0.94780000      -2.29400000       2.43770000
H       -0.73300000      -0.24530000       2.06060000
H       -2.20500000      -0.93300000      -0.11100000
