21
Properties=species:S:1:pos:R:3 gdb_59362=T pbc="F F F"
C        0.59330000       0.41780000      -0.70780000
C        0.00280000      -0.19080000       0.56280000
O       -0.15160000       0.80810000       1.57530000
C       -1.31760000      -0.95410000       0.38830000
C       -2.48050000      -0.41100000      -0.49620000
C       -2.82400000      -1.88370000      -0.86000000
O       -3.14880000      -2.20670000      -2.18360000
C       -1.39870000      -2.30420000      -0.37110000
O       -0.49270000      -2.35380000      -1.46980000
H        1.53470000       0.91900000      -0.46690000
H        0.77240000      -0.34900000      -1.46310000
H       -0.08410000       1.16690000      -1.13620000
H        0.73200000      -0.89210000       0.98740000
H       -0.71360000       1.50120000       1.21150000
H       -1.69270000      -1.13400000       1.40120000
H       -3.25840000       0.18770000      -0.01710000
H       -2.11880000       0.12140000      -1.38060000
H       -3.61480000      -2.29290000      -0.22570000
H       -2.36760000      -1.97980000      -2.70480000
H       -1.31090000      -3.21380000       0.23470000
H       -0.57250000      -3.22680000      -1.86770000
