14
Properties=species:S:1:pos:R:3 gdb_5426=T pbc="F F F"
N        0.09110000       1.37460000       0.15720000
C       -0.00660000      -0.00920000       0.04220000
C       -1.10850000      -0.86690000       0.02130000
C       -2.49730000      -0.47540000      -0.00830000
O       -3.44770000      -1.23300000      -0.03040000
C       -0.58830000      -2.20860000      -0.00790000
C        0.76860000      -2.12770000      -0.01690000
N        1.11570000      -0.77770000       0.01420000
H        0.69590000       1.80300000      -0.53400000
H       -0.81260000       1.82740000       0.14550000
H       -2.66960000       0.63040000      -0.01690000
H       -1.18980000      -3.10250000      -0.03630000
H        1.53390000      -2.88530000      -0.04870000
H        2.05030000      -0.41940000       0.11470000
