19
Properties=species:S:1:pos:R:3 gdb_92666=T pbc="F F F"
O        0.24180000       1.37080000      -0.22450000
C        0.10150000      -0.01050000      -0.00190000
C        0.20980000      -0.48960000       1.47970000
C       -1.32950000      -0.56470000       1.54550000
O       -1.81330000       0.66090000       2.09890000
C       -2.98330000       1.11410000       1.47200000
O       -2.74960000       1.45510000       0.13130000
C       -2.47250000       0.28830000      -0.64770000
C       -1.36950000      -0.54860000      -0.01430000
H       -0.46110000       1.82410000       0.25820000
H        0.78360000      -0.49580000      -0.70480000
H        0.68000000      -1.47300000       1.56630000
H        0.67300000       0.20530000       2.18260000
H       -1.79690000      -1.41380000       2.06020000
H       -3.78220000       0.35200000       1.53550000
H       -3.28890000       2.02510000       1.99020000
H       -3.39560000      -0.30470000      -0.74690000
H       -2.18100000       0.64400000      -1.63930000
H       -1.39680000      -1.56950000      -0.40740000
