20
Properties=species:S:1:pos:R:3 gdb_113461=T pbc="F F F"
C       -0.01420000       1.45260000      -0.41930000
C       -0.02460000       0.15110000       0.39160000
C       -1.38750000      -0.49490000       0.41970000
O       -1.81580000      -1.14750000      -0.80150000
C       -1.59150000      -1.93910000       0.35070000
C       -0.60970000      -3.13770000       0.33420000
C       -1.73850000      -3.98020000       0.95230000
N       -2.09480000      -3.31880000       2.22940000
C       -2.67380000      -2.81970000       0.94920000
H        0.98340000       1.90130000      -0.43340000
H       -0.31840000       1.26250000      -1.45280000
H       -0.70630000       2.18870000       0.00420000
H        0.69730000      -0.55780000      -0.02810000
H        0.28520000       0.34770000       1.42620000
H       -2.17540000       0.10220000       0.88470000
H       -0.37580000      -3.42200000      -0.69460000
H        0.30540000      -3.05740000       0.92560000
H       -1.94060000      -5.03100000       0.78990000
H       -2.81710000      -3.88800000       2.67180000
H       -3.74290000      -2.76510000       0.78740000
