20
Properties=species:S:1:pos:R:3 gdb_127102=T pbc="F F F"
C        0.35960000       1.04090000      -0.52490000
N        0.03920000      -0.16010000       0.23950000
C        0.48450000      -0.06790000       1.61840000
C       -1.27720000      -0.63620000       0.07930000
C       -2.27160000      -0.76530000       1.03440000
N       -3.33290000      -1.32770000       0.40020000
N       -3.10240000      -1.57230000      -0.90110000
C       -1.85440000      -1.16030000      -1.11480000
C       -1.22130000      -1.30550000      -2.46160000
H        1.43950000       1.21760000      -0.48660000
H        0.07460000       0.91230000      -1.57030000
H       -0.15130000       1.94080000      -0.13830000
H       -0.03200000       0.72390000       2.19340000
H        0.31860000      -1.02300000       2.12420000
H        1.55610000       0.15400000       1.63960000
H       -2.29880000      -0.52130000       2.08340000
H       -4.21210000      -1.60480000       0.79980000
H       -1.21950000      -0.36460000      -3.02590000
H       -0.18010000      -1.63010000      -2.36540000
H       -1.77030000      -2.04300000      -3.05120000
