20
Properties=species:S:1:pos:R:3 gdb_13977=T pbc="F F F"
C        0.02400000       1.52870000       0.00690000
C       -0.04090000       0.00500000      -0.11770000
C       -1.45440000      -0.55320000       0.11320000
C       -1.49820000      -2.04630000       0.03430000
C       -1.62380000      -2.88930000      -1.19960000
C       -2.59600000      -3.08700000      -0.04940000
C       -1.86110000      -3.76770000       1.09620000
O       -0.79280000      -2.78420000       1.05010000
H        1.04090000       1.89820000      -0.15790000
H       -0.63000000       2.01640000      -0.72500000
H       -0.29220000       1.85900000       1.00270000
H        0.30740000      -0.30380000      -1.11110000
H        0.64080000      -0.45830000       0.60470000
H       -1.81790000      -0.23450000       1.09880000
H       -2.14730000      -0.14120000      -0.63140000
H       -2.04870000      -2.39270000      -2.06680000
H       -0.87170000      -3.64230000      -1.42110000
H       -3.66770000      -2.98040000      -0.15170000
H       -2.39010000      -3.71540000       2.05480000
H       -1.49390000      -4.78850000       0.93280000
