22
Properties=species:S:1:pos:R:3 gdb_66238=T pbc="F F F"
C       -0.04870000       1.45610000       0.13360000
C        0.01020000      -0.06430000      -0.05540000
C        0.83430000      -0.47290000      -1.30310000
C        2.22870000      -0.75920000      -0.72590000
C        1.87470000      -1.33410000       0.64570000
O        0.72070000      -0.61590000       1.07450000
C       -1.39990000      -0.64180000      -0.08200000
C       -1.67730000      -2.02250000       0.37360000
N       -2.12750000      -0.86470000       1.17410000
H        0.95580000       1.88880000       0.10970000
H       -0.64730000       1.92300000      -0.65530000
H       -0.50370000       1.69940000       1.09760000
H        0.41380000      -1.38000000      -1.74920000
H        0.83710000       0.30650000      -2.06860000
H        2.81770000      -1.44680000      -1.33780000
H        2.79980000       0.16790000      -0.61220000
H        1.65340000      -2.41040000       0.57240000
H        2.65760000      -1.19920000       1.39830000
H       -2.01960000      -0.22870000      -0.87710000
H       -2.47240000      -2.60020000      -0.08930000
H       -0.84570000      -2.60610000       0.75610000
H       -1.46310000      -0.74800000       1.93810000
