17
Properties=species:S:1:pos:R:3 gdb_66436=T pbc="F F F"
C        0.02490000       1.52190000      -0.00870000
C       -0.00560000       0.02750000      -0.00800000
C        0.84020000      -0.99150000      -0.76210000
C        0.86100000      -0.96760000       0.76300000
C       -0.32850000      -1.99190000       0.77750000
O       -0.66110000      -3.02050000       1.61520000
C       -0.32560000      -2.01890000      -0.75050000
C       -1.19500000      -1.00820000       0.01640000
O       -2.55430000      -0.85760000       0.09730000
H        1.05880000       1.88450000      -0.00540000
H       -0.46810000       1.93860000      -0.89510000
H       -0.47460000       1.93400000       0.87560000
H        1.64770000      -0.82790000      -1.46570000
H        1.67930000      -0.76850000       1.44470000
H       -1.19760000      -2.66740000       2.33470000
H       -0.61400000      -2.82500000      -1.41180000
H       -2.90100000      -0.67420000      -0.78350000
