18
Properties=species:S:1:pos:R:3 gdb_35168=T pbc="F F F"
C       -0.09130000      -1.21530000      -0.00880000
C       -0.04780000      -0.01270000       0.00240000
C        0.02150000       1.41840000       0.01220000
C        0.51060000       2.16300000       1.27840000
C        1.34710000       2.11690000       0.06320000
C        2.78240000       1.72150000      -0.27420000
C        2.40480000       2.20400000      -1.69440000
N        1.75260000       3.29160000      -0.80830000
C        3.07270000       3.21830000      -0.00670000
H       -0.13740000      -2.27580000      -0.01850000
H       -0.75600000       1.93280000      -0.54690000
H       -0.00290000       3.08840000       1.51710000
H        0.78720000       1.55110000       2.13000000
H        3.34190000       0.83460000       0.03580000
H        3.20390000       2.59390000      -2.33010000
H        1.68240000       1.61460000      -2.26230000
H        2.98080000       3.58810000       1.01690000
H        3.91630000       3.67520000      -0.53050000
