19
Properties=species:S:1:pos:R:3 gdb_14784=T pbc="F F F"
O       -0.07540000       1.42280000       0.01080000
C        0.00890000       0.00630000       0.00210000
C       -1.41120000      -0.54420000       0.01270000
C       -1.44930000      -2.07460000       0.00490000
C       -2.87130000      -2.61310000       0.01580000
O       -2.80190000      -4.04160000       0.00770000
C       -3.97770000      -4.69460000       0.01490000
N       -4.00190000      -5.95710000       0.00900000
H        0.81810000       1.77790000       0.00310000
H        0.54120000      -0.35780000      -0.89180000
H        0.55820000      -0.36760000       0.88170000
H       -1.92600000      -0.15300000       0.89900000
H       -1.94270000      -0.14370000      -0.85940000
H       -0.93600000      -2.46640000      -0.88120000
H       -0.91910000      -2.47580000       0.87670000
H       -3.40830000      -2.27000000       0.91120000
H       -3.42530000      -2.26070000      -0.86560000
H       -4.85210000      -4.02790000       0.02620000
H       -4.96610000      -6.28350000       0.01610000
