14
Properties=species:S:1:pos:R:3 gdb_20633=T pbc="F F F"
C        0.02300000       1.48040000       0.00910000
C       -0.05620000      -0.01500000       0.03670000
C       -1.19640000      -0.71850000      -0.13720000
C       -1.17650000      -2.16390000      -0.09550000
N       -2.21210000      -2.89860000      -0.25100000
N        0.13190000      -2.62700000       0.13790000
N        1.25070000      -1.89930000       0.30830000
N        1.18200000      -0.63610000       0.26300000
H        0.71400000       1.80770000      -0.77480000
H       -0.95580000       1.92980000      -0.16850000
H        0.42160000       1.85510000       0.95770000
H       -2.15280000      -0.24080000      -0.31150000
H       -1.99160000      -3.89360000      -0.18730000
H        0.30550000      -3.62110000       0.19390000
