16
Properties=species:S:1:pos:R:3 gdb_16005=T pbc="F F F"
C        0.03790000       1.51090000      -0.00230000
N        1.27030000       0.70160000       0.05080000
C       -0.04280000       0.03340000       0.00850000
C       -0.39860000      -0.71930000       1.26480000
O        0.09630000      -2.06990000       1.21120000
C        0.13550000      -2.64640000      -0.01180000
N       -0.11090000      -2.15510000      -1.15140000
C       -0.46590000      -0.73930000      -1.22420000
H       -0.17450000       2.08270000       0.89760000
H       -0.21720000       2.02110000      -0.92850000
H        1.70620000       0.67170000      -0.86840000
H        0.06000000      -0.26250000       2.14320000
H       -1.48730000      -0.75830000       1.40210000
H        0.43840000      -3.68740000       0.08660000
H       -1.55190000      -0.65740000      -1.37490000
H       -0.00170000      -0.31070000      -2.12140000
