19
Properties=species:S:1:pos:R:3 gdb_89197=T pbc="F F F"
C       -0.90720000       1.15790000      -0.01250000
C       -0.01490000      -0.07430000       0.03330000
C        1.22000000      -0.14220000      -0.91530000
C        2.12210000      -0.64720000       0.26070000
O        2.81640000      -1.83500000       0.10870000
C        0.90490000      -0.33130000       1.25680000
C        1.69200000       0.89400000       1.80010000
C        2.90060000       0.49470000       0.92740000
O        4.03980000       0.85370000       0.87720000
H       -0.33330000       2.08420000       0.09290000
H       -1.44150000       1.21460000      -0.96720000
H       -1.65570000       1.13470000       0.78710000
H       -0.63520000      -0.96360000      -0.12450000
H        1.14340000      -0.87100000      -1.72870000
H        1.53140000       0.81000000      -1.35430000
H        2.32830000      -2.41290000      -0.48700000
H        0.56690000      -1.03840000       2.01360000
H        1.28140000       1.88950000       1.61360000
H        1.93500000       0.82380000       2.86480000
