14
Properties=species:S:1:pos:R:3 gdb_3731=T pbc="F F F"
C        0.02630000       1.48990000      -0.30240000
C       -0.04170000       0.05140000       0.21150000
N       -1.36860000      -0.53250000       0.07250000
C       -1.94520000      -1.10980000      -1.00840000
C       -3.21710000      -1.41770000      -0.58930000
N       -3.35630000      -1.01890000       0.70420000
N       -2.23780000      -0.48110000       1.10230000
H        1.03350000       1.89070000      -0.15520000
H       -0.20980000       1.54200000      -1.36930000
H       -0.68200000       2.12190000       0.23930000
H        0.66720000      -0.59080000      -0.31960000
H        0.19570000       0.00810000       1.27650000
H       -1.42100000      -1.25060000      -1.93870000
H       -4.01900000      -1.89820000      -1.12590000
