13
Properties=species:S:1:pos:R:3 gdb_132465=T pbc="F F F"
O        0.07840000       1.32100000       0.00760000
C       -0.04870000      -0.01110000       0.00110000
C       -1.22510000      -0.66870000       0.00410000
C       -1.17560000      -2.10120000      -0.00390000
C        0.00820000      -2.74640000      -0.01390000
F        0.08810000      -4.07370000      -0.02150000
C        1.27560000      -2.04340000      -0.01710000
N        2.41610000      -2.59040000      -0.02640000
O        1.14470000      -0.64040000      -0.00890000
H        1.02000000       1.53510000       0.00350000
H       -2.15430000      -0.11990000       0.01220000
H       -2.09170000      -2.68000000      -0.00190000
H        3.16210000      -1.89630000      -0.02680000
