16
Properties=species:S:1:pos:R:3 gdb_113034=T pbc="F F F"
C        0.14990000       1.32610000       0.27790000
O        0.19490000      -0.08640000       0.13870000
C        0.40560000      -0.51610000      -1.16960000
O        1.73050000      -0.22010000      -1.62770000
C        2.48630000      -1.41630000      -1.74660000
C        1.49630000      -2.53690000      -1.51030000
C        0.31580000      -2.01740000      -1.21000000
C        3.10720000      -1.48280000      -3.08390000
N        3.60940000      -1.56170000      -4.12100000
H        1.11360000       1.78270000       0.02510000
H       -0.62990000       1.76410000      -0.36230000
H       -0.08790000       1.53360000       1.32280000
H       -0.28800000       0.00530000      -1.84870000
H        3.29950000      -1.43490000      -1.00490000
H        1.77170000      -3.57980000      -1.58360000
H       -0.59360000      -2.54780000      -0.96470000
