15
Properties=species:S:1:pos:R:3 gdb_28915=T pbc="F F F"
N        0.02280000       1.41970000      -0.10020000
C        0.03520000       0.03900000      -0.05440000
C       -1.16990000      -0.66470000      -0.11280000
O       -2.34690000       0.03380000      -0.15500000
C       -1.12350000      -2.05620000      -0.11600000
O       -2.32450000      -2.69890000      -0.16690000
N       -0.01750000      -2.77920000      -0.06690000
C        1.13810000      -2.10000000      -0.00890000
C        1.21820000      -0.71890000       0.00020000
H        0.82070000       1.88420000       0.30410000
H       -0.86020000       1.84470000       0.14030000
H       -3.06540000      -0.60980000      -0.16460000
H       -2.12240000      -3.64360000      -0.15350000
H        2.04240000      -2.70020000       0.03280000
H        2.18120000      -0.22180000       0.04460000
