20
Properties=species:S:1:pos:R:3 gdb_62598=T pbc="F F F"
C       -0.03900000       1.57940000       0.02420000
C       -0.00840000       0.05590000       0.00760000
C       -1.40280000      -0.52870000      -0.23390000
C        1.06860000      -0.64820000      -0.87910000
C        2.45040000      -0.22440000      -0.34190000
C        2.20440000      -0.24530000       1.12950000
C        0.72500000      -0.67760000       1.17630000
C        1.22370000      -1.78030000       0.18730000
N        2.70730000      -1.48060000       0.43960000
H        0.95680000       1.99810000       0.19660000
H       -0.41120000       1.97530000      -0.92790000
H       -0.70220000       1.95040000       0.81440000
H       -1.80790000      -0.18800000      -1.19330000
H       -1.39290000      -1.62360000      -0.24780000
H       -2.09950000      -0.21290000       0.55080000
H        0.93560000      -0.81180000      -1.94760000
H        3.25020000       0.31790000      -0.83090000
H        2.79920000       0.27950000       1.86690000
H        0.25260000      -0.87020000       2.13850000
H        0.87730000      -2.80790000       0.11470000
