18
Properties=species:S:1:pos:R:3 gdb_60295=T pbc="F F F"
C       -0.09400000       1.27540000      -0.36650000
C       -0.19070000      -0.15930000       0.15360000
O        0.80700000      -0.41880000       1.14180000
C       -1.60660000      -0.47530000       0.65840000
N       -1.93570000      -1.83790000       1.04540000
C       -1.04520000      -2.70500000       1.22730000
O       -1.34340000      -3.99960000       1.58140000
C       -2.60230000      -4.48910000       1.33840000
O       -2.93770000      -5.55070000       1.76160000
H        0.92840000       1.48560000      -0.68970000
H       -0.76810000       1.44040000      -1.21270000
H       -0.35900000       1.99500000       0.41830000
H        0.05150000      -0.85250000      -0.66180000
H        0.64310000       0.16600000       1.89040000
H       -1.83550000       0.17390000       1.51760000
H       -2.32320000      -0.18410000      -0.12000000
H        0.03500000      -2.57660000       1.18240000
H       -3.20430000      -3.81140000       0.71980000
