14
Properties=species:S:1:pos:R:3 gdb_129732=T pbc="F F F"
N       -0.27750000       1.39290000       0.06840000
C       -0.06890000      -0.02300000       0.01920000
C       -1.19850000      -0.79730000       0.02210000
O       -2.43190000      -0.28850000       0.06760000
N       -1.12020000      -2.14930000      -0.02200000
N        0.04100000      -2.83380000      -0.07120000
C        1.13160000      -2.13310000      -0.07540000
C        1.22560000      -0.65670000      -0.03160000
O        2.29780000      -0.05560000      -0.03850000
H        0.20940000       1.77960000       0.87490000
H        0.17010000       1.82980000      -0.73520000
H       -2.28020000       0.67810000       0.09430000
H       -1.95930000      -2.70770000      -0.01930000
H        2.05840000      -2.69760000      -0.11530000
