18
Properties=species:S:1:pos:R:3 gdb_114945=T pbc="F F F"
O       -0.05750000       1.35020000       0.25630000
C       -0.01410000      -0.05490000       0.04420000
C       -1.45520000      -0.53100000      -0.12130000
C       -1.57140000      -2.08000000      -0.16420000
C       -2.07430000      -2.41940000       1.22780000
C       -2.19190000      -3.74350000       1.77300000
O       -1.87050000      -4.76770000       1.19440000
C       -2.42190000      -1.26550000       1.85070000
N       -2.25410000      -0.16070000       1.06550000
H        0.83120000       1.66010000       0.45180000
H        0.55730000      -0.31250000      -0.86030000
H        0.44460000      -0.57680000       0.89810000
H       -1.87820000      -0.05170000      -1.00900000
H       -2.28010000      -2.40720000      -0.93270000
H       -0.61540000      -2.56160000      -0.39490000
H       -2.60470000      -3.77880000       2.80880000
H       -2.83020000      -1.15850000       2.84910000
H       -2.07130000       0.74460000       1.47370000
