15
Properties=species:S:1:pos:R:3 gdb_132902=T pbc="F F F"
C       -0.02830000       1.55530000       0.03660000
C       -0.00640000       0.05370000      -0.01310000
C       -0.03450000      -0.66460000      -1.16960000
N       -0.01320000      -2.02470000      -1.17000000
C        0.03890000      -2.84710000      -0.02290000
O        0.05390000      -4.06030000      -0.14060000
C        0.06870000      -2.08360000       1.20660000
C        0.04660000      -0.72660000       1.18160000
F        0.07490000      -0.04490000       2.32870000
H        0.86260000       1.95410000       0.53340000
H       -0.06960000       1.97430000      -0.97210000
H       -0.89500000       1.92640000       0.59390000
H       -0.07520000      -0.18850000      -2.14240000
H       -0.03490000      -2.53430000      -2.04210000
H        0.10910000      -2.62740000       2.14070000
