18
Properties=species:S:1:pos:R:3 gdb_67309=T pbc="F F F"
C       -0.05460000       1.51880000       0.02110000
C       -0.02320000       0.01450000       0.01240000
C        0.79450000      -0.96840000      -0.88670000
C        1.99350000      -1.01790000       0.06320000
C        0.74880000      -0.97020000       0.95350000
N       -0.00650000      -1.94790000       0.01200000
C       -1.20010000      -0.97770000      -0.03120000
C       -2.11890000      -1.03830000       1.08640000
C       -2.87670000      -1.06140000       2.02040000
H        0.95600000       1.93710000       0.08040000
H       -0.52730000       1.90760000      -0.88750000
H       -0.62480000       1.88620000       0.88080000
H        0.75190000      -1.06470000      -1.97360000
H        2.55670000      -1.95450000       0.07630000
H        2.65410000      -0.14780000       0.07970000
H        0.65370000      -1.06700000       2.03510000
H       -1.73770000      -1.04430000      -0.98510000
H       -3.54910000      -1.09490000       2.84170000
