18
Properties=species:S:1:pos:R:3 gdb_24156=T pbc="F F F"
C       -0.08510000       1.65280000       0.21210000
N       -0.30320000       0.34780000      -0.40540000
C       -0.16200000      -0.80820000       0.47390000
C       -1.50560000      -0.36140000       0.01220000
C        1.35200000       2.06320000       0.11090000
C        2.32290000       1.56440000      -0.71820000
N        3.45620000       2.29630000      -0.43190000
C        3.12500000       3.18880000       0.54180000
N        1.86520000       3.07600000       0.89370000
H       -0.72310000       2.37860000      -0.30970000
H       -0.38990000       1.67740000       1.27350000
H        0.30950000      -1.68390000       0.03710000
H        0.09250000      -0.62480000       1.51650000
H       -2.14840000       0.11750000       0.74950000
H       -2.03330000      -0.90300000      -0.76790000
H        2.30720000       0.78500000      -1.45960000
H        4.36110000       2.17990000      -0.85550000
H        3.83900000       3.88700000       0.95280000
