23
Properties=species:S:1:pos:R:3 gdb_39282=T pbc="F F F"
C        0.22450000       1.29630000      -0.72340000
C        1.54910000       1.52870000       0.06010000
C        1.46170000       2.44580000       1.30350000
C        1.88870000       1.56420000       2.49730000
C        1.44770000       0.11840000       2.15800000
C       -0.00230000      -0.25760000       2.55410000
C       -0.90490000       0.15900000       1.37230000
C       -0.02800000       0.00380000       0.10610000
C        1.45000000       0.06890000       0.61060000
H       -0.53470000       2.08330000      -0.66250000
H        0.40620000       1.07620000      -1.77920000
H        2.42260000       1.76320000      -0.55280000
H        2.08980000       3.33640000       1.20640000
H        0.43690000       2.80720000       1.44220000
H        2.98130000       1.58490000       2.58890000
H        1.48610000       1.91860000       3.45230000
H        2.14700000      -0.59380000       2.60540000
H       -0.05860000      -1.34470000       2.68600000
H       -0.31270000       0.19090000       3.50400000
H       -1.81660000      -0.44390000       1.32120000
H       -1.23130000       1.19830000       1.48800000
H       -0.31030000      -0.87850000      -0.47320000
H        2.13680000      -0.65480000       0.16910000
