21
Properties=species:S:1:pos:R:3 gdb_95158=T pbc="F F F"
C        0.06590000       1.51010000      -0.00630000
C       -0.04670000      -0.00170000       0.03820000
C       -0.87160000      -0.59870000       1.16310000
C        0.63080000      -0.72470000       1.18120000
O        1.19150000      -1.99970000       0.97890000
C        1.69230000      -2.19830000      -0.34170000
C        0.51690000      -2.12250000      -1.31420000
O       -0.47030000      -3.07810000      -0.94400000
C       -0.02970000      -0.68060000      -1.32980000
H        0.98250000       1.82700000      -0.51760000
H       -0.78370000       1.94830000      -0.54340000
H        0.07660000       1.94130000       0.99990000
H       -1.34010000       0.07790000       1.87060000
H       -1.44060000      -1.49610000       0.95020000
H        1.19390000      -0.14000000       1.90630000
H        2.46440000      -1.45620000      -0.59170000
H        2.14160000      -3.19500000      -0.34400000
H        0.84750000      -2.38700000      -2.32550000
H       -0.37630000      -3.20710000       0.00810000
H       -1.02730000      -0.68090000      -1.78230000
H        0.61960000      -0.09140000      -1.99120000
