20
Properties=species:S:1:pos:R:3 gdb_58542=T pbc="F F F"
C        0.05270000       1.57230000       0.06570000
C        0.00970000       0.04600000      -0.03550000
O        0.79490000      -0.55160000       0.99570000
C       -1.42120000      -0.52690000      -0.02120000
C       -2.33880000       0.07310000      -1.08450000
C       -1.48710000      -2.08850000       0.08960000
N       -2.17160000      -1.90440000       1.37670000
C       -2.02610000      -0.54420000       1.41330000
O       -2.23670000       0.28520000       2.26400000
H        1.09280000       1.89720000       0.15580000
H       -0.37890000       2.05250000      -0.81640000
H       -0.50400000       1.91210000       0.94560000
H        0.49260000      -0.27120000      -0.96910000
H        0.52770000      -0.14800000       1.83040000
H       -1.89110000      -0.00890000      -2.08170000
H       -3.30190000      -0.44600000      -1.10420000
H       -2.53610000       1.12950000      -0.88570000
H       -2.09310000      -2.59260000      -0.66890000
H       -0.50710000      -2.56250000       0.18140000
H       -2.35320000      -2.55600000       2.12670000
