17
Properties=species:S:1:pos:R:3 gdb_55252=T pbc="F F F"
N       -0.09280000       1.32960000       0.13250000
C       -0.00430000      -0.05760000       0.07570000
O        1.03080000      -0.65620000       0.31170000
N       -1.18570000      -0.69720000      -0.21880000
C       -1.24920000      -2.16440000      -0.21160000
C       -2.63200000      -2.47580000       0.37090000
C       -3.46810000      -1.23900000       0.05060000
O       -4.66500000      -1.15290000       0.02770000
C       -2.49800000      -0.08450000      -0.25370000
H        0.81910000       1.75980000       0.16910000
H       -0.73940000       1.79380000      -0.48720000
H       -1.15460000      -2.56300000      -1.23060000
H       -0.41550000      -2.54680000       0.37620000
H       -3.10310000      -3.38000000      -0.01740000
H       -2.58580000      -2.56460000       1.46370000
H       -2.60900000       0.70090000       0.50330000
H       -2.76450000       0.34930000      -1.22960000
