20
Properties=species:S:1:pos:R:3 gdb_6026=T pbc="F F F"
C        0.02550000       1.48840000       0.05910000
N       -0.01900000       0.03060000       0.05660000
C        0.82320000      -0.52080000       1.10880000
C       -1.37810000      -0.54250000      -0.02780000
C       -1.31240000      -2.08050000      -0.16350000
C       -2.31780000      -0.16180000       1.14660000
C       -1.98750000      -0.03530000      -1.28070000
N       -2.49600000       0.34250000      -2.24710000
H        1.05820000       1.80860000      -0.11020000
H       -0.58570000       1.88640000      -0.75430000
H       -0.31330000       1.94490000       1.00590000
H        0.47740000      -0.28980000       2.13270000
H        0.91710000      -1.60380000       1.01350000
H        1.82560000      -0.09570000       1.00140000
H       -1.04320000      -2.54260000       0.78890000
H       -2.29000000      -2.46790000      -0.45890000
H       -0.57850000      -2.36340000      -0.92130000
H       -2.44730000       0.91980000       1.22090000
H       -3.30450000      -0.61140000       1.00800000
H       -1.90370000      -0.53090000       2.08900000
