20
Properties=species:S:1:pos:R:3 gdb_73216=T pbc="F F F"
C       -0.10620000       1.50120000      -0.04360000
C       -0.01600000      -0.01510000       0.03400000
C       -1.29620000      -0.80430000       0.43630000
C       -0.42920000      -1.70040000       1.36390000
C        0.77150000      -0.72590000       1.17820000
C        2.04370000      -1.31190000       0.54630000
N        1.70750000      -1.33510000      -0.86820000
C        0.62240000      -0.58690000      -1.24040000
O        0.24020000      -0.40910000      -2.37820000
H        0.88450000       1.96050000      -0.13720000
H       -0.69180000       1.79320000      -0.92070000
H       -0.58690000       1.91040000       0.85100000
H       -1.99570000      -0.17400000       0.99270000
H       -1.83940000      -1.29220000      -0.37620000
H       -0.78760000      -1.82760000       2.38750000
H       -0.23230000      -2.69090000       0.94390000
H        0.98490000      -0.11650000       2.05770000
H        2.92650000      -0.68640000       0.74060000
H        2.25990000      -2.31930000       0.92240000
H        2.30650000      -1.73310000      -1.57450000
