14
Properties=species:S:1:pos:R:3 gdb_29436=T pbc="F F F"
O        0.56480000       1.22050000       0.16690000
C        0.18570000      -0.07870000       0.00640000
C       -0.25470000      -0.60710000      -1.18290000
N       -0.53270000      -1.94530000      -0.95210000
C       -0.28450000      -2.23680000       0.35100000
O       -0.53390000      -3.50420000       0.80440000
C        0.50160000      -4.17260000       1.40060000
O        0.35420000      -5.24430000       1.89420000
C        0.16840000      -1.10850000       0.99590000
H        0.77870000       1.36790000       1.09230000
H       -0.39480000      -0.15370000      -2.14820000
H       -0.89030000      -2.60250000      -1.62280000
H        1.43990000      -3.59260000       1.35900000
H        0.42320000      -1.02590000       2.04090000
