16
Properties=species:S:1:pos:R:3 gdb_20976=T pbc="F F F"
C       -0.10290000       1.40870000      -0.01020000
N        0.23910000      -0.00180000      -0.04600000
C        0.06710000      -0.74430000       1.18760000
C        0.07140000      -0.68400000      -1.22510000
N       -0.02860000      -2.01220000      -1.28310000
N       -0.10190000      -2.22130000      -2.63170000
C       -0.06610000      -1.05390000      -3.28970000
N        0.04110000      -0.05030000      -2.44190000
H        0.46420000       1.89600000       0.78930000
H        0.15620000       1.86790000      -0.96340000
H       -1.17580000       1.57880000       0.17780000
H       -0.99200000      -0.93010000       1.42880000
H        0.56880000      -1.70990000       1.10830000
H        0.51340000      -0.17600000       2.00900000
H       -0.18880000      -3.15810000      -2.98640000
H       -0.11940000      -0.97600000      -4.36560000
