15
Properties=species:S:1:pos:R:3 gdb_125101=T pbc="F F F"
C        0.85070000       1.52300000      -0.08070000
C        0.34550000       0.12070000      -0.14100000
C        0.02850000      -0.65280000      -1.23410000
N       -0.37980000      -1.84140000      -0.73400000
N       -0.32450000      -1.82290000       0.61070000
N        0.11100000      -0.64440000       0.96340000
O        0.10900000      -0.29600000      -2.54770000
C       -0.22750000      -1.13270000      -3.55080000
N       -0.64520000      -2.31390000      -3.38400000
H        0.16360000       2.16470000       0.47980000
H        1.82310000       1.56940000       0.41960000
H        0.96240000       1.93600000      -1.08630000
H       -0.68550000      -2.63940000      -1.27220000
H       -0.07370000      -0.60870000      -4.49550000
H       -0.83740000      -2.75980000      -4.27720000
