21
Properties=species:S:1:pos:R:3 gdb_122560=T pbc="F F F"
C       -0.75920000       1.07980000      -0.46750000
C        0.15700000      -0.02980000       0.01930000
O        0.79350000      -0.61270000      -1.10000000
C        1.67350000      -1.66050000      -0.76310000
C        2.27250000      -2.17830000      -2.05710000
O        3.30200000      -3.18390000      -1.83790000
C        2.66670000      -4.05040000      -2.78620000
C        1.31950000      -4.47230000      -2.30050000
C        1.49010000      -3.12150000      -2.97030000
H       -0.18640000       1.84530000      -0.99870000
H       -1.51430000       0.68140000      -1.15110000
H       -1.26940000       1.55130000       0.37770000
H        0.91140000       0.36850000       0.71880000
H       -0.41810000      -0.79400000       0.56930000
H        2.48680000      -1.30630000      -0.10680000
H        1.14670000      -2.46480000      -0.22540000
H        2.69030000      -1.33450000      -2.62000000
H        3.29880000      -4.59270000      -3.47920000
H        0.80890000      -5.20730000      -2.91530000
H        1.13580000      -4.56010000      -1.23360000
H        0.95030000      -2.83000000      -3.86000000
