17
Properties=species:S:1:pos:R:3 gdb_101316=T pbc="F F F"
O        0.11960000       1.33240000      -0.05690000
C       -0.02140000      -0.06010000       0.20950000
C       -1.39830000      -0.54220000      -0.26390000
O       -1.60870000      -0.14840000      -1.60790000
C       -1.48920000      -2.04770000      -0.22190000
O       -1.66170000      -2.64920000       1.04950000
C       -2.73460000      -2.78660000       0.12230000
C       -4.01500000      -2.06850000       0.41270000
O       -4.14140000      -1.18160000       1.21810000
H       -0.42720000       1.81280000       0.57480000
H        0.76540000      -0.55250000      -0.37180000
H        0.12720000      -0.29660000       1.27060000
H       -2.16520000      -0.12100000       0.40250000
H       -1.18970000       0.71970000      -1.68650000
H       -0.79550000      -2.56180000      -0.89030000
H       -2.85670000      -3.78370000      -0.30270000
H       -4.86950000      -2.42310000      -0.20510000
