15
Properties=species:S:1:pos:R:3 gdb_18565=T pbc="F F F"
O       -0.04570000       0.00200000       0.05070000
C       -0.02700000       1.20080000       0.00090000
N       -1.01770000       2.15520000      -0.05980000
C       -0.11970000       3.31230000       0.03580000
C       -0.00780000       3.95940000       1.41940000
O        0.71810000       3.03740000       2.21920000
C        1.73120000       2.48110000       1.38650000
C        1.07170000       2.29690000       0.01740000
H       -2.00840000       2.07340000       0.12150000
H       -0.21620000       4.02510000      -0.78600000
H        0.53080000       4.91790000       1.32920000
H       -0.97000000       4.14410000       1.90500000
H        2.59380000       3.16250000       1.30950000
H        2.06050000       1.54280000       1.83900000
H        1.75360000       2.30420000      -0.83190000
