15
Properties=species:S:1:pos:R:3 gdb_125533=T pbc="F F F"
C       -0.01640000       1.42200000      -0.01170000
C        0.00470000      -0.06930000       0.01510000
N       -0.05020000      -0.78380000      -1.11480000
N       -0.00570000      -2.05530000      -0.62410000
C       -0.01460000      -3.36430000      -1.07470000
C        0.05880000      -4.13960000       0.04300000
N        0.11170000      -3.30930000       1.16360000
C        0.07060000      -2.01680000       0.73040000
N        0.08050000      -0.77820000       1.18940000
H        0.88720000       1.83000000       0.45220000
H       -0.07920000       1.77680000      -1.04160000
H       -0.87230000       1.80700000       0.55160000
H       -0.07020000      -3.62910000      -2.11510000
H        0.07800000      -5.21120000       0.13810000
H        0.16990000      -3.60340000       2.12150000
