13
Properties=species:S:1:pos:R:3 gdb_13226=T pbc="F F F"
N       -0.20690000      -3.82230000      -0.22930000
C       -0.12570000      -2.66550000      -0.15880000
C       -0.03460000      -1.30620000      -0.07370000
C        0.04450000      -0.10290000       0.00550000
C        0.13230000       1.34460000       0.10480000
C       -0.18740000       1.97710000       1.49010000
C        1.27160000       2.47070000       1.43760000
O        1.49230000       1.82880000       0.15800000
H       -0.41580000       1.79580000      -0.73290000
H       -0.95670000       2.74850000       1.46580000
H       -0.41240000       1.25730000       2.27620000
H        1.40410000       3.55600000       1.37070000
H        1.93850000       2.07250000       2.20950000
