16
Properties=species:S:1:pos:R:3 gdb_53139=T pbc="F F F"
C       -0.02560000       1.48910000       0.01960000
C       -0.02530000       0.03470000       0.05090000
C       -0.03130000      -1.16900000       0.08040000
C       -0.03020000      -2.60270000       0.10440000
C       -0.53640000      -3.42580000       1.25190000
O       -1.62260000      -2.74770000       1.92020000
C       -2.39830000      -2.84900000       0.75900000
N       -3.59870000      -2.56130000       0.55790000
C       -1.30370000      -3.47380000      -0.04420000
H        0.86970000       1.87390000      -0.48100000
H       -0.89880000       1.87390000      -0.51860000
H       -0.04660000       1.90790000       1.03170000
H        0.80980000      -3.07650000      -0.40200000
H        0.00880000      -4.17280000       1.81270000
H       -4.03170000      -2.17190000       1.39690000
H       -1.40380000      -4.22930000      -0.80890000
