18
Properties=species:S:1:pos:R:3 gdb_56302=T pbc="F F F"
N       -0.05750000       1.30320000      -0.08200000
C        0.06250000      -0.04070000       0.15170000
O        1.11150000      -0.57530000       0.42660000
C       -1.27820000      -0.78490000       0.10560000
O       -1.03530000      -2.15360000      -0.02430000
C       -2.20670000      -2.93610000       0.03530000
C       -1.78210000      -4.40270000      -0.09240000
C       -2.92090000      -5.30930000      -0.04600000
C       -3.87950000      -6.03290000      -0.00490000
H        0.79110000       1.84500000      -0.11320000
H       -0.88410000       1.69870000      -0.49590000
H       -1.82510000      -0.55810000       1.03820000
H       -1.89770000      -0.40390000      -0.72600000
H       -2.73770000      -2.77650000       0.98730000
H       -2.90210000      -2.67170000      -0.77760000
H       -1.23230000      -4.52660000      -1.03270000
H       -1.07540000      -4.63230000       0.71340000
H       -4.71580000      -6.68600000       0.03060000
