21
Properties=species:S:1:pos:R:3 gdb_61524=T pbc="F F F"
C        0.26430000       1.40860000      -0.12200000
C        0.10430000      -0.09880000      -0.02610000
C       -1.22870000      -0.65400000      -0.50600000
C       -1.53880000      -0.36940000      -2.00150000
N       -0.60610000      -0.92520000      -2.98670000
C       -2.89640000      -0.84560000      -2.31130000
N       -3.96320000      -1.23870000      -2.51680000
C        1.34610000      -0.95210000      -0.19720000
C        0.72850000      -0.78070000       1.16880000
H        1.21810000       1.72720000       0.30880000
H        0.24420000       1.76560000      -1.15830000
H       -0.53520000       1.92550000       0.42180000
H       -1.25830000      -1.73890000      -0.34970000
H       -2.03970000      -0.22840000       0.09940000
H       -1.55050000       0.71740000      -2.15220000
H        0.32990000      -0.59580000      -2.77180000
H       -0.58330000      -1.93820000      -2.90570000
H        1.25000000      -1.92060000      -0.67600000
H        2.28780000      -0.45190000      -0.39860000
H        1.24870000      -0.16140000       1.89140000
H        0.21140000      -1.62940000       1.60390000
