23
Properties=species:S:1:pos:R:3 gdb_116462=T pbc="F F F"
C        0.06990000       1.37430000       0.10300000
O       -0.09560000      -0.01370000      -0.06500000
C        0.61530000      -0.57370000      -1.15610000
C        2.13250000      -0.65210000      -0.92000000
C        2.80060000      -1.41300000      -2.07100000
O        2.22480000      -2.69140000      -2.26730000
C        0.84430000      -2.60310000      -2.58030000
C        0.03250000      -1.97070000      -1.43770000
C       -0.00010000      -2.87690000      -0.19950000
H        1.09220000       1.64880000       0.40090000
H       -0.18020000       1.92770000      -0.81640000
H       -0.61460000       1.68560000       0.89620000
H        0.44130000       0.05130000      -2.05160000
H        2.57070000       0.34950000      -0.84850000
H        2.32710000      -1.16470000       0.02780000
H        2.72680000      -0.82160000      -3.00130000
H        3.86210000      -1.58020000      -1.86730000
H        0.70810000      -2.02150000      -3.50900000
H        0.50770000      -3.62640000      -2.77260000
H       -0.99620000      -1.82870000      -1.79250000
H        1.00770000      -3.17560000       0.10120000
H       -0.47780000      -2.36760000       0.63950000
H       -0.56290000      -3.79100000      -0.41610000
