17
Properties=species:S:1:pos:R:3 gdb_75733=T pbc="F F F"
C       -0.01090000       1.44020000       0.03660000
N        0.00320000      -0.00350000       0.02600000
C       -0.01930000      -0.77230000      -1.14660000
O       -0.05220000      -0.32430000      -2.26970000
C        0.00570000      -2.19080000      -0.69590000
C        0.04010000      -2.23370000       0.64300000
C        0.07480000      -3.39660000       1.57190000
C        0.03940000      -0.82710000       1.14810000
N        0.06770000      -0.52020000       2.38380000
H        0.88870000       1.84470000       0.51420000
H       -0.04030000       1.76820000      -1.00370000
H       -0.89320000       1.82700000       0.55910000
H       -0.00410000      -3.01330000      -1.39640000
H        0.07000000      -4.34230000       1.02590000
H        0.96620000      -3.35360000       2.20630000
H       -0.78390000      -3.37030000       2.25070000
H        0.06160000       0.49160000       2.52480000
