14
Properties=species:S:1:pos:R:3 gdb_3459=T pbc="F F F"
O       -0.00070000      -0.01620000      -0.19380000
C       -0.01290000       1.15610000       0.04280000
C       -1.05690000       2.29530000       0.05130000
C       -0.80240000       2.99690000       1.39330000
C        0.76650000       3.01780000       1.37030000
C        1.00020000       2.32280000       0.02100000
N       -0.05060000       3.01560000      -0.83180000
H       -2.07600000       2.18080000      -0.31260000
H       -1.22760000       4.00240000       1.39800000
H       -1.21320000       2.43640000       2.23640000
H        1.16470000       4.03430000       1.36290000
H        1.21680000       2.46890000       2.20080000
H        2.01090000       2.23550000      -0.37270000
H       -0.05830000       2.58130000      -1.75580000
