15
Properties=species:S:1:pos:R:3 gdb_123821=T pbc="F F F"
C       -0.02070000       1.48730000       0.10720000
C        1.36460000       2.16770000      -0.05170000
C        2.16270000       1.40870000      -1.05510000
C        1.96920000       0.08260000      -1.32320000
C        0.92450000      -0.69280000      -0.68370000
C        0.00550000      -0.02860000       0.03130000
N        2.93770000      -0.27920000      -2.22660000
N        3.67440000       0.68920000      -2.51940000
O        3.18980000       1.85750000      -1.74420000
H       -0.47220000       1.81350000       1.04860000
H       -0.68860000       1.85380000      -0.68740000
H        1.25350000       3.21840000      -0.33170000
H        1.91130000       2.15150000       0.90230000
H        0.91580000      -1.77120000      -0.78880000
H       -0.79800000      -0.56470000       0.52540000
