17
Properties=species:S:1:pos:R:3 gdb_110763=T pbc="F F F"
N       -0.02260000       1.49590000       0.08090000
C        0.00070000       0.08930000      -0.02390000
C        1.19090000      -0.70980000      -0.54530000
C        2.00520000      -1.70300000       0.25850000
O        2.67550000      -2.63020000      -0.58030000
C       -0.17040000      -0.99720000      -1.10260000
O       -0.90840000      -1.83470000      -0.17560000
C       -0.86600000      -0.82590000       0.79370000
N       -1.45490000      -0.73930000       1.89450000
H        0.68050000       1.94340000      -0.49200000
H       -0.93300000       1.88780000      -0.13170000
H        1.79110000      -0.11120000      -1.23160000
H        2.78800000      -1.17400000       0.81080000
H        1.36750000      -2.20870000       0.99440000
H        2.00150000      -3.17050000      -1.00610000
H       -0.49710000      -0.98560000      -2.13340000
H       -2.01690000      -1.57170000       2.08110000
