20
Properties=species:S:1:pos:R:3 gdb_59238=T pbc="F F F"
C        0.89020000      -0.51440000      -1.31160000
C        0.04390000       0.13150000      -0.22110000
O       -0.11500000       1.50510000      -0.55950000
C       -1.33240000      -0.50800000      -0.10000000
C       -1.55850000      -1.90200000       0.57190000
O       -0.47610000      -2.55590000       1.20220000
C       -2.47740000      -1.18540000       1.54750000
C       -1.75260000      -0.10540000       2.23740000
N       -2.27060000       0.16910000       0.87870000
H        1.83110000       0.03110000      -1.42270000
H        1.12460000      -1.55260000      -1.05670000
H        0.36780000      -0.49260000      -2.27330000
H        0.58370000       0.03920000       0.73320000
H       -0.84760000       1.84460000      -0.03100000
H       -1.81780000      -0.46470000      -1.08040000
H       -2.09980000      -2.58590000      -0.09140000
H       -0.02450000      -3.09840000       0.54820000
H       -3.46020000      -1.52650000       1.85350000
H       -2.29570000       0.44450000       2.99920000
H       -0.68680000      -0.20050000       2.41630000
