21
Properties=species:S:1:pos:R:3 gdb_31127=T pbc="F F F"
C        0.18000000       1.55520000       0.24340000
C       -0.04330000       0.05300000      -0.01120000
C        0.64950000      -0.45560000      -1.24240000
C        0.07990000      -0.78860000      -2.45950000
C       -1.34300000      -0.78070000      -2.91550000
N        1.09220000      -1.16740000      -3.30220000
C        2.30970000      -1.09720000      -2.65120000
C        2.06340000      -0.65370000      -1.37350000
N        3.01090000      -0.35470000      -0.36830000
H        1.24770000       1.77750000       0.32730000
H       -0.21850000       2.15010000      -0.58450000
H       -0.31390000       1.87870000       1.16620000
H        0.29960000      -0.50870000       0.87070000
H       -1.11860000      -0.14860000      -0.07880000
H       -1.51560000      -0.05790000      -3.72360000
H       -1.66330000      -1.76350000      -3.28460000
H       -2.00720000      -0.50980000      -2.09210000
H        0.96520000      -1.46950000      -4.25120000
H        3.23000000      -1.35870000      -3.14780000
H        3.90400000      -0.79790000      -0.54640000
H        2.69140000      -0.64880000       0.54790000
