17
Properties=species:S:1:pos:R:3 gdb_127244=T pbc="F F F"
C        0.03550000       1.43780000      -0.08150000
N       -0.00330000      -0.00920000      -0.05170000
C        0.17640000      -0.86710000      -1.08400000
C       -0.02490000      -2.14650000      -0.59160000
C        0.10120000      -3.44670000      -1.33290000
C        1.55830000      -3.75920000      -1.63900000
O        1.99680000      -3.97670000      -2.73810000
C       -0.32130000      -1.93450000       0.77240000
N       -0.31310000      -0.64380000       1.09490000
H        0.56890000       1.76330000      -0.97630000
H       -0.97560000       1.85680000      -0.09180000
H        0.55840000       1.79910000       0.80560000
H        0.42640000      -0.51590000      -2.07330000
H       -0.28900000      -4.25910000      -0.70600000
H       -0.45380000      -3.45220000      -2.27550000
H        2.21800000      -3.75160000      -0.74140000
H       -0.54070000      -2.67570000       1.52820000
