18
Properties=species:S:1:pos:R:3 gdb_36200=T pbc="F F F"
N       -0.06460000      -1.15550000       0.06100000
C       -0.06110000      -0.00030000       0.08990000
C       -0.01770000       1.46300000       0.11970000
C        1.40040000       1.99360000      -0.04190000
C        2.40510000       1.81850000       1.13410000
C        2.74000000       3.34300000       1.07860000
C        1.77620000       3.50560000      -0.11790000
O        2.42190000       3.31810000      -1.39110000
C        2.05810000       1.91900000      -1.43420000
H       -0.66440000       1.84720000      -0.67830000
H       -0.44780000       1.80280000       1.06940000
H        1.92670000       1.51090000       2.06720000
H        3.23110000       1.13200000       0.93480000
H        2.42550000       3.88900000       1.97190000
H        3.77240000       3.60880000       0.84450000
H        1.06900000       4.34040000      -0.12710000
H        2.92840000       1.25920000      -1.52980000
H        1.36180000       1.71300000      -2.25810000
