15
Properties=species:S:1:pos:R:3 gdb_28507=T pbc="F F F"
C       -0.08420000       1.53160000      -0.01670000
C       -0.01740000       0.03120000      -0.02790000
N       -0.11410000      -0.62590000      -1.18250000
C       -0.05370000      -1.95680000      -1.18310000
C        0.10890000      -2.65830000       0.01130000
O        0.16890000      -4.00400000       0.00090000
N        0.20880000      -2.03330000       1.18230000
C        0.14600000      -0.70880000       1.15790000
O        0.24450000      -0.04860000       2.32930000
H        0.82700000       1.96860000       0.40660000
H       -0.21210000       1.89340000      -1.03780000
H       -0.91830000       1.88940000       0.59720000
H       -0.13360000      -2.47980000      -2.12960000
H        0.28230000      -4.28600000       0.91840000
H        0.35040000      -0.71780000       3.01920000
