18
Properties=species:S:1:pos:R:3 gdb_33457=T pbc="F F F"
C       -0.17350000      -1.17600000       0.15700000
C       -0.13010000       0.02620000       0.13580000
C       -0.06440000       1.46320000       0.06820000
C        0.58120000       2.18610000       1.20810000
N        1.27020000       2.10240000      -0.08220000
C       -1.15910000       2.16160000      -0.71370000
C       -1.57420000       1.58310000      -2.08500000
C       -2.96240000       1.42420000      -1.43470000
O       -2.47030000       1.91080000      -0.16590000
H       -0.21880000      -2.23640000       0.19530000
H        0.21640000       3.17490000       1.47180000
H        0.93970000       1.58730000       2.03940000
H        1.98810000       1.38290000      -0.04780000
H       -0.92200000       3.23290000      -0.72750000
H       -1.51060000       2.27640000      -2.92390000
H       -1.08070000       0.64580000      -2.34490000
H       -3.74980000       2.07200000      -1.83930000
H       -3.34550000       0.40090000      -1.35430000
