18
Properties=species:S:1:pos:R:3 gdb_31973=T pbc="F F F"
C        0.44800000       0.53510000       0.66100000
N       -0.32930000       0.31780000      -0.56510000
C       -1.48640000      -0.46050000      -0.43830000
C       -2.83070000      -0.18430000      -0.51350000
N       -3.57280000      -1.33720000      -0.36560000
C       -2.69910000      -2.30260000      -0.19780000
C       -2.98940000      -3.75590000       0.00280000
O       -2.14410000      -4.34430000       0.98890000
N       -1.41570000      -1.82410000      -0.23980000
H        1.31620000       1.15620000       0.42530000
H       -0.12680000       1.01550000       1.46740000
H        0.81990000      -0.42260000       1.03680000
H       -0.56240000       1.20190000      -0.99890000
H       -3.29900000       0.77700000      -0.66420000
H       -4.05660000      -3.86200000       0.23400000
H       -2.79210000      -4.32830000      -0.91160000
H       -2.33480000      -3.90810000       1.82640000
H       -0.57920000      -2.37630000      -0.14710000
