18
Properties=species:S:1:pos:R:3 gdb_43010=T pbc="F F F"
O       -0.00650000       0.60450000      -1.31380000
C       -0.00930000       1.31430000      -0.32780000
C       -1.28380000       1.82090000       0.25590000
C       -1.62920000       1.65480000       1.73450000
C       -1.22840000       2.99910000       1.21560000
C        0.11680000       3.66190000       1.49580000
N        1.35380000       2.95420000       1.14980000
C        1.64240000       1.64600000       1.69400000
C        1.29060000       1.80300000       0.23970000
H       -2.11100000       1.73790000      -0.43990000
H       -2.68040000       1.49410000       1.94840000
H       -0.96990000       1.08640000       2.37540000
H       -2.03520000       3.72090000       1.11800000
H        0.13910000       4.59820000       0.92580000
H        0.18780000       3.93900000       2.55420000
H        2.68480000       1.47180000       1.94990000
H        0.93840000       1.15590000       2.35660000
H        2.09600000       1.73570000      -0.48720000
