18
Properties=species:S:1:pos:R:3 gdb_72445=T pbc="F F F"
C       -0.01520000       1.47340000       0.08250000
C       -0.01840000      -0.02970000      -0.01930000
C        0.79320000      -0.69110000      -1.16850000
O        1.08310000      -1.99650000      -0.63690000
C        0.50880000      -1.96920000       0.67700000
O        0.65400000      -0.63820000       1.10100000
C       -1.00380000      -2.12120000       0.47160000
N       -1.79970000      -1.20900000       1.32070000
C       -1.36660000      -0.77360000      -0.02210000
H        1.00800000       1.85270000       0.15700000
H       -0.48630000       1.91830000      -0.79970000
H       -0.57150000       1.78960000       0.96860000
H        0.22550000      -0.77920000      -2.10150000
H        1.72970000      -0.15470000      -1.36050000
H        1.03730000      -2.66070000       1.33110000
H       -1.41840000      -3.03890000       0.07350000
H       -2.77550000      -1.49330000       1.25880000
H       -2.08390000      -0.60680000      -0.81760000
