18
Properties=species:S:1:pos:R:3 gdb_109518=T pbc="F F F"
C       -0.45880000       1.11250000       0.16110000
O        0.45570000       0.06590000      -0.14040000
C        0.95360000      -0.56590000       0.97570000
C        0.14850000      -1.71050000       1.63770000
C       -1.12750000      -2.08910000       1.11780000
N       -2.16110000      -2.39990000       0.69730000
C        1.44330000      -1.95720000       0.82170000
C        1.37230000      -2.65870000      -0.51170000
O        2.57590000      -2.22680000       1.59150000
H        0.01770000       1.88740000       0.77790000
H       -0.76130000       1.54770000      -0.79260000
H       -1.34430000       0.73010000       0.68270000
H        1.49370000       0.06550000       1.68240000
H        0.25870000      -1.79940000       2.71310000
H        0.50140000      -2.33750000      -1.08360000
H        2.27350000      -2.43200000      -1.08860000
H        1.31150000      -3.74400000      -0.37190000
H        2.61200000      -3.17790000       1.74730000
