14
Properties=species:S:1:pos:R:3 gdb_133767=T pbc="F F F"
O        0.46050000       0.79990000      -0.86470000
C       -0.08310000       0.20370000       0.29330000
C       -1.41530000      -0.48870000       0.05320000
C       -1.50250000      -1.94350000      -0.14430000
O       -1.84510000      -1.33980000       1.10630000
C       -2.52080000       0.37170000      -0.54530000
F       -2.24990000       0.67200000      -1.82370000
F       -3.69950000      -0.25790000      -0.51660000
F       -2.65050000       1.52210000       0.12690000
H        0.56550000       0.12070000      -1.53910000
H        0.59250000      -0.53080000       0.75580000
H       -0.23080000       1.01610000       1.01070000
H       -2.33790000      -2.36490000      -0.69750000
H       -0.58460000      -2.52920000      -0.14410000
