19
Properties=species:S:1:pos:R:3 gdb_126680=T pbc="F F F"
C       -0.06450000       1.47990000       0.08690000
C       -0.01680000      -0.05200000       0.04500000
N       -1.32990000      -0.69510000       0.00350000
C       -2.05950000      -0.71410000      -1.25060000
C       -2.05300000      -0.83430000       1.14830000
C       -3.36770000      -1.16310000       1.38840000
C       -3.43420000      -1.18270000       2.80090000
N       -2.30020000      -0.88910000       3.38580000
O       -1.40350000      -0.65880000       2.31140000
H        0.95110000       1.88790000       0.10180000
H       -0.57840000       1.88920000      -0.78870000
H       -0.58270000       1.82520000       0.98570000
H        0.53280000      -0.39050000      -0.83980000
H        0.51450000      -0.43240000       0.91990000
H       -1.34610000      -0.79400000      -2.07410000
H       -2.71610000      -1.58870000      -1.28670000
H       -2.67480000       0.18410000      -1.40740000
H       -4.15300000      -1.35100000       0.67850000
H       -4.29100000      -1.40270000       3.42390000
