21
Properties=species:S:1:pos:R:3 gdb_61262=T pbc="F F F"
C       -0.04990000       1.47190000      -0.00960000
C        0.00050000      -0.05890000      -0.01590000
C        0.85040000      -0.53150000      -1.22170000
C        0.74820000      -1.95880000      -1.51790000
N        0.65430000      -3.08390000      -1.76580000
N        0.58040000      -0.53810000       1.22450000
C        0.50960000      -1.97970000       1.57570000
C        0.31160000      -1.57230000       3.05290000
C       -0.08050000      -0.18270000       2.50100000
H        0.95790000       1.88880000       0.08640000
H       -0.50000000       1.84920000      -0.93240000
H       -0.64970000       1.83920000       0.82690000
H       -1.02890000      -0.44550000      -0.15500000
H        0.54020000       0.01490000      -2.11910000
H        1.89950000      -0.28140000      -1.02960000
H       -0.37870000      -2.47950000       1.15980000
H        1.39340000      -2.56530000       1.31060000
H       -0.44320000      -2.11330000       3.62330000
H        1.24830000      -1.55170000       3.61250000
H        0.31780000       0.70710000       2.99850000
H       -1.17430000      -0.07590000       2.40590000
