18
Properties=species:S:1:pos:R:3 gdb_36182=T pbc="F F F"
C       -0.03610000      -1.17290000       0.28020000
C       -0.00970000       0.01730000       0.11750000
C        0.04090000       1.46000000      -0.10090000
C        1.44600000       2.00560000      -0.19600000
C        2.63550000       1.40590000      -0.92770000
C        3.46180000       2.29270000       0.02190000
C        3.16210000       3.75100000      -0.37590000
C        1.76760000       3.43170000       0.12940000
N        2.26010000       2.32330000       1.02680000
H       -0.06820000      -2.22260000       0.43640000
H       -0.50620000       1.70920000      -1.02070000
H       -0.47910000       1.97590000       0.71620000
H        2.73420000       0.34630000      -0.68140000
H        2.74040000       1.55270000      -2.00820000
H        4.44380000       1.98730000       0.37660000
H        3.66300000       4.45910000       0.28920000
H        3.30830000       4.05090000      -1.41910000
H        1.00440000       4.12450000       0.46810000
