23
Properties=species:S:1:pos:R:3 gdb_86414=T pbc="F F F"
C       -0.92520000       1.19440000       0.30870000
C       -0.00320000       0.00800000       0.00740000
C        0.85000000       0.27910000      -1.25780000
C        2.18920000      -0.49290000      -1.30050000
O        3.13640000       0.16810000      -2.13250000
C        2.71410000      -0.73240000       0.12430000
C        1.70570000      -1.63310000       0.88510000
C        0.91930000      -0.33220000       1.19650000
C        2.28210000       0.41590000       1.08500000
H       -0.34360000       2.08750000       0.56740000
H       -1.54700000       1.44450000      -0.55760000
H       -1.59240000       0.97590000       1.14920000
H       -0.63560000      -0.87260000      -0.17190000
H        0.27300000       0.09980000      -2.17000000
H        1.10250000       1.34780000      -1.27510000
H        2.05240000      -1.46910000      -1.78090000
H        3.29360000       1.04210000      -1.75800000
H        3.76510000      -1.02860000       0.09130000
H        1.19060000      -2.41610000       0.31740000
H        2.14900000      -2.07310000       1.78240000
H        0.37800000      -0.27700000       2.14510000
H        2.83770000       0.37590000       2.02530000
H        2.29060000       1.44820000       0.71980000
