13
Properties=species:S:1:pos:R:3 gdb_129889=T pbc="F F F"
N        0.05920000       1.36320000       0.15010000
C       -0.04790000      -0.01230000       0.05480000
C       -1.19190000      -0.78790000       0.03350000
N       -0.69600000      -2.09770000       0.00440000
C       -0.95220000      -3.43540000      -0.03460000
N        0.13940000      -4.14640000      -0.05290000
O        1.20910000      -3.20930000      -0.02620000
C        0.66710000      -1.98590000       0.00810000
N        1.12140000      -0.76850000       0.03560000
H        0.96010000       1.69920000      -0.16020000
H       -0.70370000       1.88280000      -0.25790000
H       -2.24020000      -0.55510000       0.05240000
H       -1.93320000      -3.88270000      -0.04780000
