20
Properties=species:S:1:pos:R:3 gdb_73719=T pbc="F F F"
C       -0.02860000       1.46250000       0.00210000
C       -0.02790000      -0.05310000      -0.00710000
C        1.06370000      -0.65470000      -0.88990000
C        0.94080000      -2.16360000      -1.20540000
O       -0.38680000      -2.66260000      -1.14850000
C       -1.08290000      -2.23770000       0.00340000
C       -0.29180000      -2.07070000       1.33310000
N       -0.45480000      -0.58090000       1.32020000
C       -1.33620000      -0.72850000       0.08350000
H        0.92830000       1.84600000       0.37320000
H       -0.18630000       1.86050000      -1.00600000
H       -0.81770000       1.83920000       0.65690000
H        1.02340000      -0.09260000      -1.83040000
H        2.05220000      -0.45530000      -0.45790000
H        1.28660000      -2.36030000      -2.22370000
H        1.58420000      -2.74560000      -0.53150000
H       -1.97020000      -2.86750000       0.07720000
H       -0.84440000      -2.47440000       2.18470000
H        0.73960000      -2.42690000       1.38770000
H       -2.29060000      -0.22150000      -0.01850000
