20
Properties=species:S:1:pos:R:3 gdb_62963=T pbc="F F F"
C       -0.05620000       1.55110000      -0.07460000
C        0.01650000       0.03590000       0.00560000
O       -1.26500000      -0.56510000      -0.09720000
C        1.06040000      -0.67100000      -0.90250000
N        2.39790000      -0.17210000      -0.49900000
C        1.74350000      -1.26360000       0.27560000
C        0.76340000      -0.59710000       1.21470000
C        0.99630000      -0.03220000       2.58210000
C        0.08720000      -1.22590000       2.39120000
H        0.94560000       1.98050000      -0.01400000
H       -0.50850000       1.86810000      -1.02350000
H       -0.66830000       1.95030000       0.74080000
H       -1.72010000      -0.15420000      -0.84060000
H        0.87670000      -1.08740000      -1.88600000
H        3.07680000      -0.61110000      -1.12170000
H        2.22040000      -2.22960000       0.39170000
H        1.96870000      -0.18650000       3.03810000
H        0.53840000       0.92220000       2.82240000
H       -0.98370000      -1.08290000       2.47950000
H        0.43930000      -2.19840000       2.72100000
