18
Properties=species:S:1:pos:R:3 gdb_99003=T pbc="F F F"
C       -0.22290000       1.72340000      -1.40420000
O       -0.13780000       0.42800000      -1.99540000
C        0.89340000      -0.33570000      -1.56270000
N        1.73120000       0.04800000      -0.70050000
N        0.81040000      -1.55210000      -2.24690000
C        1.65630000      -2.62960000      -2.12220000
N        2.65540000      -2.64700000      -1.33640000
O        1.21090000      -3.59930000      -2.96970000
C        1.94420000      -4.81420000      -3.00590000
H       -0.34380000       1.64790000      -0.32030000
H        0.68000000       2.30420000      -1.61060000
H       -1.09600000       2.19570000      -1.85680000
H        2.41550000      -0.68810000      -0.53010000
H        0.05160000      -1.64940000      -2.90200000
H        3.17050000      -3.51930000      -1.36950000
H        2.97830000      -4.64720000      -3.32900000
H        1.94280000      -5.31090000      -2.02870000
H        1.43640000      -5.44770000      -3.73360000
