17
Properties=species:S:1:pos:R:3 gdb_37862=T pbc="F F F"
N        0.02040000       1.43000000       0.01180000
C        1.36830000       1.96280000       0.00230000
C        2.48010000       1.23240000       0.74050000
N        2.11220000       0.01660000       1.45720000
C        1.11970000      -0.77840000       0.74280000
C        0.02740000      -0.01940000       0.00460000
C        1.10750000      -0.72700000      -0.77250000
O        2.10210000       0.02000000      -1.42950000
C        2.42610000       1.22220000      -0.77480000
H       -0.43780000       1.74100000       0.86630000
H        1.39610000       3.04730000      -0.02410000
H        3.24650000       1.80790000       1.25040000
H        2.95210000      -0.55150000       1.54800000
H        0.87120000      -1.70310000       1.25450000
H       -0.96900000      -0.44880000      -0.02000000
H        0.85820000      -1.60260000      -1.36150000
H        3.14540000       1.77840000      -1.36550000
