20
Properties=species:S:1:pos:R:3 gdb_115434=T pbc="F F F"
O        0.06450000       1.39300000      -0.24580000
C        0.03390000       0.00050000       0.02260000
C       -1.42290000      -0.43860000       0.05290000
C       -2.17620000      -0.20420000      -1.27290000
C       -3.33250000      -1.20800000      -1.22070000
C       -2.64680000      -2.48190000      -0.66550000
C       -1.59130000      -1.95360000       0.35980000
C       -3.57460000      -3.45520000      -0.09970000
N       -4.31390000      -4.21840000       0.35620000
H        0.98210000       1.68000000      -0.26160000
H        0.56930000      -0.56960000      -0.75650000
H        0.51440000      -0.23220000       0.98670000
H       -1.92250000       0.14070000       0.83770000
H       -2.50550000       0.82940000      -1.39100000
H       -1.51880000      -0.43490000      -2.12200000
H       -4.10370000      -0.87010000      -0.52000000
H       -3.81490000      -1.38510000      -2.18490000
H       -2.12230000      -2.97570000      -1.49160000
H       -0.65050000      -2.50090000       0.24620000
H       -1.93130000      -2.11680000       1.38450000
