21
Properties=species:S:1:pos:R:3 gdb_90896=T pbc="F F F"
C       -0.13450000       1.54280000      -0.04350000
C        0.04220000       0.03560000       0.02450000
O        0.83870000      -0.40010000      -1.09230000
C        1.53810000      -1.54840000      -0.66650000
C        2.58640000      -1.40090000       0.41910000
C        2.29050000      -0.13370000       1.21570000
C        0.77370000      -0.54680000       1.24960000
C        0.04050000      -0.43690000       2.56980000
C        1.18850000      -1.95560000       0.72000000
H        0.82130000       2.06480000       0.05320000
H       -0.57800000       1.82360000      -1.00280000
H       -0.80360000       1.88580000       0.75200000
H       -0.95050000      -0.44500000      -0.04050000
H        1.70180000      -2.27650000      -1.45200000
H        3.53180000      -1.93050000       0.37710000
H        2.72610000      -0.17260000       2.21780000
H        2.54620000       0.82450000       0.75250000
H       -0.06810000       0.60900000       2.87810000
H       -0.96390000      -0.87160000       2.50310000
H        0.57930000      -0.96220000       3.36460000
H        0.84800000      -2.92480000       1.06150000
