16
Properties=species:S:1:pos:R:3 gdb_12149=T pbc="F F F"
C        0.33950000       1.48400000       0.00670000
O        1.24650000       0.37070000      -0.00800000
C       -0.14380000       0.10470000       0.00400000
C       -0.82770000      -0.70710000       1.11730000
C       -1.53530000      -1.50480000       0.00870000
C       -2.02430000      -2.88210000       0.00600000
O       -2.92680000      -1.76510000       0.02070000
C       -0.84910000      -0.69510000      -1.10460000
H        0.32530000       2.06180000       0.93030000
H        0.30760000       2.07170000      -0.91010000
H       -0.13180000      -1.27870000       1.73740000
H       -1.50950000      -0.14400000       1.76030000
H       -2.01240000      -3.46000000      -0.91750000
H       -1.99470000      -3.46990000       0.92290000
H       -1.54310000      -0.12520000      -1.72830000
H       -0.16530000      -1.25990000      -1.74410000
