23
Properties=species:S:1:pos:R:3 gdb_115600=T pbc="F F F"
C       -0.07810000       1.55500000      -0.33340000
C        0.03540000       0.04280000      -0.11850000
C       -1.29840000      -0.57010000       0.27480000
O       -2.30570000      -0.43630000      -0.76350000
C       -2.35710000      -1.85920000      -0.97650000
C       -1.43160000      -2.11640000       0.24220000
O       -0.19790000      -2.74640000      -0.03530000
C       -2.12060000      -2.71020000       1.47210000
C       -2.45580000      -4.20030000       1.34340000
H        0.87770000       1.98070000      -0.65290000
H       -0.82510000       1.77610000      -1.10110000
H       -0.38170000       2.06730000       0.58680000
H        0.40020000      -0.44680000      -1.02650000
H        0.76400000      -0.18200000       0.67010000
H       -1.65910000      -0.11720000       1.21010000
H       -3.38190000      -2.24690000      -0.91840000
H       -1.90740000      -2.15440000      -1.93330000
H       -0.35240000      -3.69210000      -0.12490000
H       -1.46740000      -2.55070000       2.33900000
H       -3.03970000      -2.14210000       1.65830000
H       -2.98430000      -4.55850000       2.23120000
H       -3.09640000      -4.39750000       0.47650000
H       -1.55310000      -4.81460000       1.24500000
