23
Properties=species:S:1:pos:R:3 gdb_103655=T pbc="F F F"
C       -0.08910000       1.37080000       0.16660000
O       -0.02190000      -0.02260000      -0.02940000
C        0.68050000      -0.48680000      -1.19180000
C        2.13500000       0.01090000      -1.19790000
C        0.58690000      -2.03370000      -1.15630000
C        0.27760000      -2.50100000      -2.60160000
C       -0.69650000      -3.68220000      -2.68250000
C       -0.23220000      -1.23160000      -3.24640000
C       -0.03010000      -0.15370000      -2.49370000
H        0.89350000       1.82230000       0.36440000
H       -0.54500000       1.89780000      -0.68430000
H       -0.72130000       1.53090000       1.04410000
H        2.60720000      -0.19340000      -0.23130000
H        2.70200000      -0.50500000      -1.97840000
H        2.20430000       1.08420000      -1.39870000
H        1.48590000      -2.49680000      -0.74050000
H       -0.25120000      -2.28590000      -0.50000000
H        1.20980000      -2.80280000      -3.10330000
H       -1.65240000      -3.43040000      -2.21070000
H       -0.89660000      -3.96200000      -3.72260000
H       -0.29070000      -4.56270000      -2.17320000
H       -0.68670000      -1.22970000      -4.23290000
H       -0.28110000       0.86290000      -2.77550000
