15
Properties=species:S:1:pos:R:3 gdb_131231=T pbc="F F F"
O       -0.18110000       1.38410000      -0.12110000
C       -0.05390000       0.03930000      -0.15660000
C       -0.02590000      -0.88960000      -1.17710000
C        0.13490000      -2.11900000      -0.50010000
N        0.19940000      -1.97320000       0.81600000
N        0.07690000      -0.62890000       1.01480000
C        0.13320000      -0.09360000       2.35070000
C        1.49740000      -0.30930000       3.00550000
O        1.68930000      -0.13710000       4.17780000
H       -0.27580000       1.71190000      -1.02060000
H       -0.11100000      -0.70600000      -2.23550000
H        0.20490000      -3.10760000      -0.93040000
H       -0.06470000       0.98130000       2.30310000
H       -0.63430000      -0.55280000       2.98070000
H        2.29960000      -0.62770000       2.30550000
