18
Properties=species:S:1:pos:R:3 gdb_69992=T pbc="F F F"
C        0.01290000       1.51660000       0.00330000
C        0.02540000       0.01390000       0.03180000
N       -0.85190000      -0.76090000       0.93100000
C        0.62200000      -0.83320000       1.09200000
C        1.29990000      -1.95310000       0.27980000
C        0.23140000      -2.85420000      -0.36910000
O       -0.31410000      -1.97470000      -1.37330000
C        0.43980000      -0.78650000      -1.24370000
O        1.74570000      -1.22580000      -0.89530000
H        0.92390000       1.90300000      -0.46600000
H       -0.84500000       1.89810000      -0.56200000
H       -0.04150000       1.92810000       1.01690000
H       -1.23170000      -0.13600000       1.64190000
H        1.09550000      -0.42900000       1.98020000
H        2.14010000      -2.45640000       0.75340000
H        0.68490000      -3.72470000      -0.85470000
H       -0.55470000      -3.16010000       0.32290000
H        0.44440000      -0.23500000      -2.18360000
