18
Properties=species:S:1:pos:R:3 gdb_120133=T pbc="F F F"
O        0.39300000       1.02040000      -0.92200000
C       -0.03870000      -0.15770000      -0.27680000
C       -1.40860000       0.02830000       0.37510000
N       -2.35020000       0.44390000      -0.67050000
C       -3.28440000      -0.43060000      -1.32660000
C       -3.86150000      -1.49840000      -0.38080000
C       -4.36110000      -0.32050000       0.50280000
O       -5.08920000      -0.25670000       1.44910000
C       -3.76180000       0.71680000      -0.43260000
H       -0.37580000       1.34220000      -1.41040000
H       -0.08360000      -1.00970000      -0.97720000
H        0.70400000      -0.40330000       0.48960000
H       -1.70090000      -0.88610000       0.90820000
H       -1.35690000       0.84440000       1.10260000
H       -3.30840000      -0.46180000      -2.40940000
H       -4.72400000      -2.02630000      -0.79890000
H       -3.17370000      -2.22980000       0.04950000
H       -4.15500000       1.70000000      -0.66710000
