18
Properties=species:S:1:pos:R:3 gdb_74142=T pbc="F F F"
C       -0.00530000       1.52220000       0.02260000
C       -0.00460000      -0.01180000       0.04350000
C       -1.42100000      -0.58950000      -0.06480000
O        0.75950000      -0.47170000      -1.07710000
C        1.84060000      -1.23310000      -0.65110000
O        2.60740000      -1.71870000      -1.43650000
C        1.81030000      -1.27730000       0.80800000
C        0.74880000      -0.57140000       1.24270000
N        0.28080000      -0.37220000       2.50670000
H        1.01650000       1.90510000       0.08220000
H       -0.45530000       1.87550000      -0.90860000
H       -0.58530000       1.93490000       0.85520000
H       -1.89650000      -0.23180000      -0.98170000
H       -1.38170000      -1.68090000      -0.09430000
H       -2.03670000      -0.28730000       0.78780000
H        2.54990000      -1.80660000       1.38930000
H        0.89090000      -0.59270000       3.27770000
H       -0.33450000       0.40760000       2.67110000
