19
Properties=species:S:1:pos:R:3 gdb_73440=T pbc="F F F"
C       -0.01660000       1.48860000       0.04850000
C        0.00470000      -0.01970000      -0.00860000
C        0.98260000      -0.70120000      -0.97460000
O        0.24600000      -1.72210000      -1.65170000
C       -0.79490000      -2.14010000      -0.75170000
C       -0.15780000      -2.97100000       0.35760000
C        0.10730000      -2.20180000       1.41630000
C       -0.44110000      -0.82350000       1.23460000
C       -1.24590000      -0.84910000      -0.03840000
H        0.93390000       1.88810000       0.42050000
H       -0.19150000       1.91720000      -0.94520000
H       -0.80800000       1.84910000       0.71310000
H        1.35390000      -0.00100000      -1.73030000
H        1.84610000      -1.13160000      -0.44840000
H       -1.55180000      -2.64860000      -1.35140000
H        0.18820000      -3.98470000       0.19680000
H        0.67650000      -2.49860000       2.29010000
H       -0.76510000      -0.24600000       2.09400000
H       -2.24320000      -0.44060000      -0.14270000
