17
Properties=species:S:1:pos:R:3 gdb_36038=T pbc="F F F"
C       -0.32170000      -0.64820000       1.48780000
C       -0.08810000       0.03250000       0.52530000
C        0.21870000       0.87060000      -0.62790000
C        1.31670000       1.89250000      -0.33980000
C        2.72450000       1.53970000      -0.56210000
O        2.00720000       2.35210000      -1.50010000
C        0.96000000       2.94230000       0.67280000
C        1.34770000       4.34390000       0.49240000
O        0.00630000       3.91550000       0.23720000
H       -0.53920000      -1.25540000       2.33140000
H        0.53540000       0.25440000      -1.47640000
H       -0.67850000       1.41560000      -0.94660000
H        3.50410000       2.05500000      -0.00380000
H        2.97850000       0.53900000      -0.90780000
H        0.78290000       2.56060000       1.67830000
H        1.47590000       4.98010000       1.36690000
H        1.91950000       4.61810000      -0.39040000
