17
Properties=species:S:1:pos:R:3 gdb_23487=T pbc="F F F"
O       -0.13260000       1.33060000      -0.07330000
N        0.03030000      -0.07010000      -0.03860000
C       -1.09650000      -0.65190000       0.03250000
C       -2.49180000      -0.05880000       0.12250000
N       -3.36900000      -1.17300000       0.53090000
C       -3.38910000      -2.38160000      -0.31240000
C       -2.13780000      -2.54140000      -1.18390000
C       -1.27160000      -2.13900000       0.06590000
C       -2.56140000      -2.31790000       0.93140000
H        0.77920000       1.64020000      -0.08380000
H       -2.53220000       0.72810000       0.88180000
H       -2.81860000       0.38610000      -0.82320000
H       -4.35720000      -2.83730000      -0.48730000
H       -1.98160000      -3.59110000      -1.44380000
H       -2.03820000      -1.92850000      -2.08550000
H       -0.37490000      -2.71970000       0.26500000
H       -2.66580000      -2.76860000       1.91070000
