18
Properties=species:S:1:pos:R:3 gdb_91709=T pbc="F F F"
O        0.06120000       1.42150000      -0.13830000
C        0.01500000       0.02010000       0.01430000
C        0.66030000      -0.51850000       1.33710000
C       -0.41810000      -1.42310000       1.95810000
C       -1.25620000      -1.85900000       0.74960000
C       -1.44540000      -0.47960000       0.09510000
N       -2.26030000       0.37120000       0.97470000
C       -2.10840000       0.19540000       2.21800000
O       -1.25690000      -0.64980000       2.85250000
H        0.98080000       1.67800000      -0.25710000
H        0.48900000      -0.47260000      -0.84990000
H        1.57430000      -1.08660000       1.13820000
H        0.91130000       0.30530000       2.00970000
H       -0.02560000      -2.23320000       2.57340000
H       -0.68500000      -2.54270000       0.11280000
H       -2.19810000      -2.33710000       1.02750000
H       -1.91930000      -0.50810000      -0.88790000
H       -2.70130000       0.74760000       2.94440000
