14
Properties=species:S:1:pos:R:3 gdb_48015=T pbc="F F F"
O       -0.44370000       0.41260000      -0.67860000
C        0.01780000       1.06210000       0.23210000
C        1.22680000       1.83920000       0.14610000
C        2.23860000       2.49900000       0.10450000
C        3.42850000       3.30330000       0.02700000
C        4.17080000       3.39650000      -1.34820000
N        3.92080000       4.83820000      -1.31390000
C        3.21860000       4.86570000      -0.14210000
O        2.68370000       5.72680000       0.49090000
H       -0.47600000       1.10250000       1.22390000
H        4.10300000       3.09880000       0.86370000
H        5.22860000       3.12060000      -1.31660000
H        3.66650000       2.87120000      -2.16280000
H        4.15990000       5.58010000      -1.95470000
