16
Properties=species:S:1:pos:R:3 gdb_23052=T pbc="F F F"
O       -0.17330000       1.41010000       0.04290000
N       -0.00860000       0.02870000       0.21130000
C       -1.09750000      -0.58560000       0.03730000
C       -2.53710000      -0.29250000      -0.29900000
O       -2.81620000      -1.71580000      -0.22160000
C       -1.45090000      -2.04500000       0.10230000
C       -0.74120000      -3.15140000      -0.70420000
O       -0.45170000      -3.89640000       0.49450000
C       -1.17320000      -2.95690000       1.31460000
H        0.71610000       1.74590000       0.20090000
H       -3.09510000       0.28800000       0.44490000
H       -2.72210000       0.12010000      -1.29770000
H       -1.42000000      -3.68390000      -1.38180000
H        0.16640000      -2.84820000      -1.23790000
H       -0.54920000      -2.52610000       2.10540000
H       -2.08880000      -3.38290000       1.74330000
