23
Properties=species:S:1:pos:R:3 gdb_73020=T pbc="F F F"
C       -0.00300000       1.53880000       0.03670000
C       -0.02650000       0.03710000       0.00010000
C       -0.85920000      -0.78160000      -1.00300000
C       -1.19610000      -1.81000000       0.12410000
C       -0.35330000      -0.98690000       1.10470000
C        1.06140000      -0.81730000       0.60350000
C        1.86300000      -1.86330000      -0.10800000
C        3.30360000      -1.58850000      -0.46990000
C        2.97610000      -2.57940000       0.61950000
H        0.55410000       1.94980000      -0.81490000
H       -1.01630000       1.95670000      -0.00120000
H        0.47600000       1.90760000       0.95010000
H       -1.74690000      -0.23930000      -1.33910000
H       -0.33330000      -1.15490000      -1.88810000
H       -2.25900000      -1.80720000       0.37530000
H       -0.88630000      -2.84810000      -0.03580000
H       -0.60620000      -0.81030000       2.14480000
H        1.66600000      -0.24530000       1.30800000
H        1.31210000      -2.46640000      -0.82150000
H        3.68210000      -1.96450000      -1.41420000
H        3.72350000      -0.63200000      -0.17520000
H        3.17460000      -2.28830000       1.64610000
H        3.12950000      -3.63480000       0.42220000
