17
Properties=species:S:1:pos:R:3 gdb_4020=T pbc="F F F"
C        0.01330000       1.58610000       0.00770000
C       -0.05420000       0.04880000       0.01830000
C        0.70620000      -0.50930000       1.14120000
C        1.32590000      -0.95620000       2.06930000
C       -1.47240000      -0.51320000       0.02110000
C       -1.66690000      -2.00260000      -0.05660000
N       -2.42630000       0.33240000       0.06900000
O       -3.67910000      -0.30020000       0.04310000
H        1.05680000       1.90820000      -0.03080000
H       -0.51890000       1.98260000      -0.85930000
H       -0.44910000       1.99810000       0.90630000
H        0.41900000      -0.32010000      -0.90580000
H        1.87640000      -1.35070000       2.88720000
H       -2.28930000      -2.34780000       0.77410000
H       -2.19970000      -2.26570000      -0.97660000
H       -0.71250000      -2.52980000      -0.02700000
H       -4.28340000       0.44780000       0.09460000
