18
Properties=species:S:1:pos:R:3 gdb_56519=T pbc="F F F"
C       -0.06530000       1.57030000       0.11670000
C        0.01130000       0.03560000       0.04210000
N        0.66380000      -0.46180000       1.25650000
C       -1.35460000      -0.52460000       0.01420000
N       -2.41160000      -0.99000000       0.00940000
C        0.73160000      -0.43400000      -1.28330000
N        0.03560000       0.07960000      -2.46590000
C        2.15860000      -0.09030000      -1.23030000
C        3.31890000       0.22970000      -1.21550000
H        0.94670000       1.98610000       0.09700000
H       -0.63530000       1.97420000      -0.72180000
H       -0.54800000       1.86530000       1.04960000
H        0.69040000      -1.47790000       1.25400000
H        1.62820000      -0.13970000       1.26060000
H        0.63860000      -1.52630000      -1.30300000
H        0.35320000       1.02080000      -2.67480000
H        0.26380000      -0.48700000      -3.27600000
H        4.34720000       0.49730000      -1.21430000
