15
Properties=species:S:1:pos:R:3 gdb_28610=T pbc="F F F"
O        0.23410000       1.31500000       0.14920000
C        0.10930000      -0.01570000       0.01460000
N       -0.00350000      -0.68810000      -1.09740000
C       -0.10510000      -2.01100000      -0.69410000
C       -0.05340000      -2.11520000       0.66710000
N        0.09260000      -0.80280000       1.12060000
C       -0.11630000      -3.27110000       1.57730000
C       -1.28760000      -4.17110000       1.63990000
O       -0.09700000      -4.55120000       0.95090000
H        0.22590000       1.67710000      -0.74600000
H       -0.19180000      -2.81490000      -1.40710000
H        0.15210000      -0.48450000       2.07290000
H        0.50280000      -3.20060000       2.47520000
H       -1.49660000      -4.72840000       2.55270000
H       -2.14470000      -3.95540000       1.00480000
