16
Properties=species:S:1:pos:R:3 gdb_18949=T pbc="F F F"
O       -0.03760000      -0.11660000      -0.29330000
C        0.00200000       1.05940000      -0.02600000
C        1.25130000       1.88480000      -0.00420000
C        1.20170000       3.30000000      -0.64510000
C        0.46230000       3.94760000       0.57940000
C        1.50270000       5.07790000       0.70000000
C        2.32660000       3.83870000       0.30200000
C        1.44780000       2.87950000       1.17410000
H       -0.93070000       1.61450000       0.22920000
H        2.11670000       1.26760000      -0.26400000
H        1.06190000       3.55610000      -1.69620000
H       -0.61500000       3.99700000       0.73650000
H        1.44030000       5.88540000      -0.03640000
H        1.67550000       5.48360000       1.70190000
H        3.39970000       3.73900000       0.13370000
H        1.59310000       2.64810000       2.23020000
