18
Properties=species:S:1:pos:R:3 gdb_86642=T pbc="F F F"
C        0.22950000       1.51320000       0.28790000
C        0.21410000       0.04120000      -0.07340000
C        1.36260000      -0.42700000      -0.98330000
N        1.68830000      -1.71090000      -0.39090000
C        2.54980000      -2.61980000      -0.96030000
N        3.07870000      -2.38440000      -2.09530000
C        1.14730000      -1.83820000       0.88480000
N        1.36970000      -2.80420000       1.66940000
O        0.36720000      -0.75230000       1.12950000
H        1.18050000       1.78470000       0.75540000
H        0.09710000       2.12120000      -0.61260000
H       -0.58070000       1.74790000       0.98280000
H       -0.75220000      -0.23160000      -0.51580000
H        1.06740000      -0.54260000      -2.02800000
H        2.22430000       0.25180000      -0.94930000
H        2.68650000      -3.49990000      -0.32800000
H        3.67530000      -3.16250000      -2.36890000
H        0.84240000      -2.69190000       2.53140000
