19
Properties=species:S:1:pos:R:3 gdb_40269=T pbc="F F F"
C       -0.10590000       1.56750000       0.13970000
O        1.12910000       0.87170000       0.29810000
C       -0.04090000       0.10630000      -0.02440000
C       -0.51520000      -0.77310000       1.11500000
O        0.40220000      -1.80710000       1.40000000
C        0.25460000      -2.98820000       0.64690000
C        0.49830000      -2.90230000      -0.83760000
C        0.37770000      -1.87140000      -1.67270000
C       -0.08290000      -0.45570000      -1.43370000
H       -0.52530000       1.99580000       1.04970000
H       -0.18030000       2.20240000      -0.74290000
H       -0.58370000      -0.16970000       2.02520000
H       -1.51640000      -1.17920000       0.89420000
H        0.97240000      -3.69320000       1.08110000
H       -0.74910000      -3.42470000       0.81560000
H        0.78530000      -3.85940000      -1.27170000
H        0.58530000      -2.07260000      -2.72250000
H       -1.11940000      -0.38140000      -1.80150000
H        0.50080000       0.22000000      -2.06920000
