17
Properties=species:S:1:pos:R:3 gdb_71369=T pbc="F F F"
O        0.12230000       1.38930000       0.10730000
C        0.06350000       0.01910000       0.04190000
C        0.65760000      -0.97870000       1.02980000
N        0.00900000      -1.90570000      -0.00430000
C       -1.18780000      -0.91540000      -0.02250000
C       -1.72790000      -0.91740000      -1.43710000
N       -1.30470000       0.29820000      -2.18870000
C       -0.46710000      -0.93450000      -2.21260000
C        0.55180000      -0.93900000      -1.09250000
H       -0.35710000       1.69250000      -0.67870000
H        1.74570000      -1.07240000       1.07810000
H        0.20830000      -1.05160000       2.02370000
H       -1.86860000      -1.00090000       0.82460000
H       -2.62550000      -1.44780000      -1.72890000
H       -1.83720000       0.34770000      -3.05550000
H       -0.33320000      -1.47880000      -3.13880000
H        1.61300000      -1.04810000      -1.31680000
