16
Properties=species:S:1:pos:R:3 gdb_635=T pbc="F F F"
C       -0.10010000       1.52540000       0.13010000
C        0.04770000       0.00380000      -0.04070000
C        0.85220000      -0.60650000       1.11320000
C       -1.33080000      -0.61410000      -0.20660000
C       -1.72910000      -1.94340000       0.27280000
O       -2.13580000      -0.76190000       0.96850000
H        0.87910000       2.01120000       0.18070000
H       -0.65350000       1.96960000      -0.70410000
H       -0.64310000       1.75610000       1.05260000
H        0.58500000      -0.18220000      -0.98200000
H        1.78690000      -0.05690000       1.25910000
H        0.27960000      -0.55870000       2.04430000
H        1.11160000      -1.65210000       0.92260000
H       -1.88880000      -0.21670000      -1.05830000
H       -2.52670000      -2.48130000      -0.23890000
H       -1.01780000      -2.57240000       0.80330000
