19
Properties=species:S:1:pos:R:3 gdb_59031=T pbc="F F F"
C        0.37620000       0.73660000      -0.85630000
C       -0.06250000       0.02780000       0.43110000
O       -0.04580000       0.93190000       1.51150000
C       -1.41960000      -0.60840000       0.29460000
N       -2.37690000      -0.33800000       1.09100000
C       -3.53300000      -1.16410000       0.70880000
C       -3.07800000      -1.90850000      -0.54700000
C       -2.63760000      -1.10680000      -1.71050000
N       -1.63480000      -1.59340000      -0.72150000
H        1.36310000       1.17900000      -0.70050000
H        0.43280000       0.03360000      -1.69190000
H       -0.32290000       1.54060000      -1.10560000
H        0.64540000      -0.79740000       0.62150000
H       -0.91680000       0.86600000       1.93020000
H       -3.77120000      -1.86070000       1.52100000
H       -4.41540000      -0.53300000       0.55600000
H       -3.35820000      -2.94690000      -0.68780000
H       -2.55960000      -1.56840000      -2.68960000
H       -2.85200000      -0.04130000      -1.71490000
