19
Properties=species:S:1:pos:R:3 gdb_68670=T pbc="F F F"
O       -0.06590000       1.41110000      -0.01790000
C        0.01680000      -0.00020000       0.00700000
C       -1.38560000      -0.62980000       0.07460000
C       -0.99860000      -2.06910000       0.48370000
C       -0.37320000      -2.78270000      -0.74820000
C        0.53180000      -1.86710000      -1.54250000
C        0.71730000      -0.58760000      -1.21470000
C        0.07640000      -1.78140000       1.52490000
C        0.65800000      -0.61260000       1.26020000
H        0.82530000       1.76430000      -0.10990000
H       -1.96900000      -0.14140000       0.85960000
H       -1.92110000      -0.56240000      -0.87580000
H       -1.83670000      -2.65600000       0.86970000
H        0.18820000      -3.67290000      -0.42990000
H       -1.17320000      -3.15760000      -1.40200000
H        1.04180000      -2.29750000      -2.40100000
H        1.37360000       0.06130000      -1.79030000
H        0.36460000      -2.48510000       2.29780000
H        1.51070000      -0.17030000       1.76380000
