14
Properties=species:S:1:pos:R:3 gdb_14429=T pbc="F F F"
O        0.02750000       1.42350000       0.00810000
C        0.00890000       0.02930000      -0.00540000
C       -1.32080000      -0.73180000      -0.07190000
C       -1.63320000      -0.79090000      -1.58920000
O       -0.60330000      -0.06100000      -2.26670000
C        0.34930000      -0.67270000      -1.34910000
C       -0.71520000      -1.79260000      -0.96840000
O       -0.68690000      -3.14550000      -0.79630000
H       -0.35990000       1.69430000      -0.83560000
H        0.63460000      -0.33540000       0.81240000
H       -2.09190000      -0.84420000       0.67870000
H       -2.62570000      -0.83450000      -2.01600000
H        1.35560000      -0.75260000      -1.75450000
H       -0.59220000      -3.56450000      -1.66010000
