16
Properties=species:S:1:pos:R:3 gdb_124664=T pbc="F F F"
C        0.11110000       1.49500000       0.40610000
C       -0.07960000       0.05170000      -0.06030000
C        0.82660000      -0.91960000       0.70110000
O        1.61840000      -0.58990000       1.54440000
C       -1.49380000      -0.44680000       0.03120000
C       -2.51580000      -0.08790000       0.88230000
N       -3.53590000      -0.90260000       0.52590000
N       -3.18720000      -1.72580000      -0.47760000
N       -1.95090000      -1.45150000      -0.77620000
H        1.15570000       1.79370000       0.29830000
H       -0.51440000       2.17610000      -0.17650000
H       -0.14310000       1.60280000       1.46470000
H        0.21360000      -0.05140000      -1.11520000
H        0.68890000      -1.98360000       0.41060000
H       -2.60220000       0.64640000       1.66450000
H       -4.47120000      -0.94800000       0.89840000
