13
Properties=species:S:1:pos:R:3 gdb_125210=T pbc="F F F"
C       -0.02390000       1.53650000       0.09420000
C        0.00760000       0.05530000      -0.07480000
C       -0.00870000      -0.78640000      -1.17140000
O       -0.05320000      -0.82410000      -2.49320000
N       -0.02320000      -2.35940000      -2.78010000
N        0.02820000      -2.96270000      -1.70730000
C        0.04220000      -2.08560000      -0.64440000
N        0.08820000      -2.13880000       0.68330000
N        0.06650000      -0.82780000       0.98520000
H        0.87140000       1.90950000       0.60430000
H       -0.07120000       2.01360000      -0.88640000
H       -0.89810000       1.86450000       0.66780000
H        0.09360000      -0.57070000       1.95980000
