19
Properties=species:S:1:pos:R:3 gdb_106177=T pbc="F F F"
C        0.07280000       1.33100000      -0.18760000
O       -0.01910000      -0.03570000       0.18970000
C       -1.29040000      -0.53970000       0.11160000
C       -1.75220000      -1.96040000      -0.08740000
C       -2.72090000      -1.85500000       1.09310000
C       -2.50600000      -0.30340000       1.05840000
O       -3.50330000       0.36180000       0.29850000
C       -3.44060000      -0.18240000      -1.03020000
C       -2.08220000      -0.86530000      -1.12040000
H        1.12120000       1.61810000      -0.08410000
H       -0.24400000       1.47900000      -1.22900000
H       -0.54090000       1.97170000       0.45960000
H       -1.17010000      -2.82640000      -0.37880000
H       -3.75280000      -2.19480000       0.96090000
H       -2.30250000      -2.30390000       1.99820000
H       -2.37190000       0.21910000       2.00440000
H       -4.27880000      -0.87440000      -1.19290000
H       -3.53720000       0.64040000      -1.74800000
H       -1.56630000      -0.93980000      -2.07010000
