21
Properties=species:S:1:pos:R:3 gdb_69490=T pbc="F F F"
C       -0.03760000       1.52360000       0.04680000
C       -0.08160000       0.02260000       0.14120000
C       -1.33600000      -0.74350000      -0.28780000
C       -1.30360000      -2.02820000       0.53730000
C       -1.40640000      -1.89180000       2.04060000
C       -0.05220000      -2.07270000       1.39430000
C        0.76510000      -3.32420000       1.60610000
C        0.66390000      -0.77980000       1.12380000
O        1.12530000      -0.66740000      -0.23420000
H        0.92190000       1.90520000       0.40460000
H       -0.16570000       1.84790000      -0.99220000
H       -0.84030000       1.97630000       0.63860000
H       -2.24010000      -0.15130000      -0.10000000
H       -1.29810000      -0.95060000      -1.36310000
H       -1.67580000      -2.94260000       0.08850000
H       -1.66670000      -0.92270000       2.45770000
H       -1.80790000      -2.73450000       2.59420000
H        0.12340000      -4.20800000       1.67760000
H        1.45980000      -3.47560000       0.77320000
H        1.35310000      -3.26710000       2.52980000
H        1.31780000      -0.33460000       1.87280000
