24
Properties=species:S:1:pos:R:3 gdb_113817=T pbc="F F F"
C        0.09570000       1.47010000      -0.42680000
C       -0.01090000       0.10550000       0.26340000
C       -1.41930000      -0.45150000       0.24210000
C       -1.94500000      -1.17650000      -0.97720000
C       -1.69560000      -1.93690000       0.30130000
N       -0.57270000      -2.83130000       0.32470000
C       -0.37390000      -3.66050000       1.50920000
C       -0.77890000      -4.27850000       0.21240000
C       -2.14310000      -4.90700000       0.03150000
H        1.12030000       1.85400000      -0.38990000
H       -0.20150000       1.40340000      -1.47880000
H       -0.55420000       2.21130000       0.05230000
H        0.66240000      -0.61400000      -0.21160000
H        0.32600000       0.19630000       1.30480000
H       -2.14880000       0.16270000       0.76660000
H       -2.96790000      -1.01370000      -1.29840000
H       -1.23910000      -1.35620000      -1.78160000
H       -2.57640000      -2.23080000       0.87490000
H        0.64580000      -3.73600000       1.87900000
H       -1.13450000      -3.61800000       2.28900000
H        0.00290000      -4.75970000      -0.37480000
H       -2.89310000      -4.47580000       0.69890000
H       -2.49840000      -4.79010000      -0.99810000
H       -2.08850000      -5.98000000       0.24410000
