12
Properties=species:S:1:pos:R:3 gdb_1826=T pbc="F F F"
N       -0.11200000       1.29390000       0.03770000
C       -0.00750000       0.03080000       0.00860000
C       -1.20770000      -0.91330000      -0.01130000
N       -0.58310000      -2.22060000       0.07350000
C        0.78630000      -2.16590000      -0.01750000
O        1.57390000      -3.07780000      -0.07660000
N        1.10260000      -0.79620000      -0.01580000
H        0.79990000       1.75240000       0.04290000
H       -1.87050000      -0.70390000       0.83410000
H       -1.77900000      -0.77100000      -0.93650000
H       -1.05700000      -3.08550000      -0.11950000
H        2.06060000      -0.48770000      -0.01450000
