15
Properties=species:S:1:pos:R:3 gdb_124918=T pbc="F F F"
C        0.00780000       1.50080000       0.08410000
C        0.00560000       0.01500000      -0.04280000
C       -0.05260000      -0.79960000      -1.17280000
C       -0.13620000      -0.39610000      -2.52010000
N       -0.19770000      -0.08810000      -3.63700000
C       -0.00480000      -2.13850000      -0.66870000
N       -0.10250000      -3.29730000      -1.40880000
N        0.08160000      -2.15100000       0.65280000
N        0.07990000      -0.82940000       0.99900000
H        0.99000000       1.87620000       0.39260000
H       -0.23770000       1.95550000      -0.87740000
H       -0.72730000       1.84060000       0.82100000
H        0.25520000      -3.23260000      -2.35050000
H        0.22030000      -4.12010000      -0.92040000
H        0.13250000      -0.59010000       1.97440000
