19
Properties=species:S:1:pos:R:3 gdb_54550=T pbc="F F F"
C        0.19570000       1.15560000      -0.76690000
C       -0.17020000       0.19930000       0.35280000
O        0.53530000       0.04450000       1.32740000
C       -1.44680000      -0.56850000       0.18590000
C       -2.71200000      -0.26170000      -0.64590000
C       -2.99920000      -1.63150000      -0.00460000
C       -1.52050000      -2.11640000      -0.17400000
C       -1.40260000      -2.54110000       1.30110000
C       -2.26470000      -1.26340000       1.33330000
H        1.17190000       1.60080000      -0.57140000
H        0.20800000       0.63240000      -1.72980000
H       -0.56090000       1.94460000      -0.84820000
H       -3.32550000       0.58130000      -0.31070000
H       -2.59860000      -0.24460000      -1.73490000
H       -3.88760000      -2.25850000      -0.09150000
H       -1.08910000      -2.56680000      -1.07010000
H       -1.90550000      -3.47490000       1.57300000
H       -0.41480000      -2.47310000       1.75930000
H       -2.70000000      -0.74320000       2.18760000
