14
Properties=species:S:1:pos:R:3 gdb_43908=T pbc="F F F"
O       -0.02470000       0.00950000       0.12980000
C        0.01300000       1.20040000       0.01390000
N       -0.97430000       2.16770000      -0.08390000
C       -0.07890000       3.32700000      -0.07470000
C        0.42460000       3.73870000       1.33870000
O        1.44700000       2.71970000       1.32880000
C        1.11130000       2.30240000      -0.00460000
C       -0.30300000       4.33870000      -1.07260000
C       -0.48920000       5.20630000      -1.88340000
H       -1.96410000       2.11770000       0.11770000
H        0.86730000       4.73950000       1.36860000
H       -0.29630000       3.61410000       2.15330000
H        1.95840000       2.24360000      -0.68740000
H       -0.65160000       5.96490000      -2.60930000
