16
Properties=species:S:1:pos:R:3 gdb_28333=T pbc="F F F"
O       -0.01000000       1.29980000      -0.01520000
C        0.02560000      -0.04980000      -0.07130000
C       -0.08890000      -0.82910000      -1.19310000
N       -0.07290000      -2.13400000      -0.67970000
C        0.13240000      -3.49250000      -1.13950000
C       -0.03770000      -4.26080000       0.20050000
N        0.38110000      -3.27500000       1.21920000
C        0.13150000      -2.02780000       0.65130000
N        0.17510000      -0.79010000       1.08680000
H        0.12070000       1.52920000       0.91270000
H       -0.25740000      -0.59920000      -2.22880000
H       -0.60030000      -3.80100000      -1.88950000
H        1.13940000      -3.62350000      -1.55800000
H       -1.08930000      -4.55360000       0.32570000
H        0.58240000      -5.15860000       0.24300000
H        0.00040000      -3.41260000       2.14550000
