18
Properties=species:S:1:pos:R:3 gdb_6024=T pbc="F F F"
C        0.02030000       1.56530000      -0.12950000
C       -0.04090000       0.04350000      -0.01330000
O        0.51040000      -0.58330000      -1.16140000
C        0.74930000      -0.49800000       1.21680000
C        0.84810000      -2.02870000       1.16850000
O        2.09690000      -0.02020000       1.21610000
C        0.06050000      -0.06790000       2.44430000
C       -0.48210000       0.30540000       3.45050000
H        1.05280000       1.88720000      -0.29300000
H       -0.58080000       1.90680000      -0.97960000
H       -0.37360000       2.04840000       0.76930000
H       -1.08900000      -0.26800000       0.12710000
H        0.13930000      -0.15650000      -1.93920000
H        1.41200000      -2.31840000       0.28170000
H        1.36030000      -2.38880000       2.06270000
H       -0.14690000      -2.47830000       1.12180000
H        2.09320000       0.88130000       1.55350000
H       -0.96040000       0.62510000       4.34350000
