17
Properties=species:S:1:pos:R:3 gdb_18270=T pbc="F F F"
C        0.09710000       1.31560000       0.14630000
O        0.02960000      -0.09340000       0.01980000
C        0.60660000      -0.57920000      -1.14210000
O        2.01470000      -0.34660000      -1.14010000
C        2.71200000      -1.44960000      -1.70860000
C        1.76330000      -2.62890000      -1.62710000
N        1.23810000      -2.81380000      -0.26210000
C        0.44010000      -2.07940000      -1.26350000
H        1.13230000       1.65960000       0.24960000
H       -0.35790000       1.81720000      -0.72210000
H       -0.46520000       1.58100000       1.04410000
H        0.16010000      -0.07230000      -2.02070000
H        2.97510000      -1.25090000      -2.75920000
H        3.63460000      -1.59650000      -1.13710000
H        1.88470000      -3.47670000      -2.29240000
H        0.85930000      -3.75380000      -0.17260000
H       -0.49670000      -2.48510000      -1.62740000
