16
Properties=species:S:1:pos:R:3 gdb_13124=T pbc="F F F"
C        0.07350000       1.37900000       0.13940000
O       -0.04170000      -0.01730000      -0.01270000
C        0.73090000      -0.51620000      -1.07670000
C        0.49570000      -2.00860000      -1.19010000
O       -0.72930000      -2.38980000      -1.86370000
C       -0.05670000      -3.15970000      -2.88020000
C        1.29110000      -2.75940000      -2.27090000
O        2.44390000      -2.91970000      -2.52870000
H        1.11220000       1.68270000       0.34510000
H       -0.27090000       1.91630000      -0.75790000
H       -0.55390000       1.66580000       0.98620000
H        0.46380000      -0.02550000      -2.02700000
H        1.80820000      -0.34780000      -0.90180000
H        0.56500000      -2.46370000      -0.19230000
H       -0.28780000      -4.23190000      -2.83410000
H       -0.24460000      -2.79130000      -3.89660000
