20
Properties=species:S:1:pos:R:3 gdb_89028=T pbc="F F F"
C        0.12400000       1.48310000      -0.29400000
C        0.08020000       0.01350000       0.05510000
N        1.36440000      -0.69440000       0.17790000
C        0.50070000      -0.56350000       1.36290000
C        1.02550000       0.26120000       2.50250000
O        1.80450000      -0.61780000       3.33950000
C        2.36540000      -0.04400000       4.42420000
C        3.16630000      -1.05600000       5.20850000
O        2.23400000       1.12020000       4.70700000
H        0.97720000       1.98050000       0.17160000
H        0.21670000       1.61170000      -1.37760000
H       -0.79310000       1.98890000       0.02680000
H       -0.73020000      -0.52810000      -0.43250000
H        1.30400000      -1.63240000      -0.20750000
H       -0.03940000      -1.45110000       1.68950000
H        1.65930000       1.07850000       2.15340000
H        0.21170000       0.68920000       3.09780000
H        3.97710000      -1.44980000       4.58870000
H        3.57750000      -0.58190000       6.09870000
H        2.53360000      -1.90180000       5.49130000
