15
Properties=species:S:1:pos:R:3 gdb_51383=T pbc="F F F"
N       -0.32800000       1.11650000      -0.09170000
C       -0.58510000      -0.06970000       0.24060000
O       -0.90410000      -0.97550000      -0.72180000
C       -1.01860000      -2.30610000      -0.32310000
C       -1.92080000      -2.76060000       0.77320000
O       -3.06430000      -1.88540000       0.86570000
C       -3.45900000      -2.25590000      -0.42890000
N       -4.49890000      -1.99220000      -1.06590000
C       -2.25540000      -3.10990000      -0.67630000
H       -0.13280000       1.67520000       0.73650000
H       -0.59550000      -0.49180000       1.25190000
H       -0.09630000      -2.87690000      -0.42260000
H       -1.67860000      -3.36290000       1.63840000
H       -5.12180000      -1.37940000      -0.53780000
H       -2.22380000      -4.03180000      -1.23770000
