21
Properties=species:S:1:pos:R:3 gdb_114910=T pbc="F F F"
C        0.03070000       1.60700000      -0.14620000
C        0.03150000       0.08040000      -0.02510000
C       -1.37270000      -0.54060000       0.10080000
C       -1.39990000      -2.08300000      -0.00110000
C       -2.17050000      -2.53380000       1.21170000
C       -2.53510000      -1.53050000       2.02230000
C       -3.27950000      -1.57210000       3.31650000
C       -2.05770000      -0.24550000       1.44820000
O       -2.19140000       0.84400000       1.96490000
H        1.05340000       1.99110000      -0.21480000
H       -0.50560000       1.92540000      -1.04760000
H       -0.46060000       2.06620000       0.71340000
H        0.51980000      -0.35820000      -0.90450000
H        0.63330000      -0.22640000       0.84090000
H       -2.01170000      -0.10520000      -0.67880000
H       -1.86520000      -2.43820000      -0.92870000
H       -0.38610000      -2.50540000       0.00700000
H       -2.38580000      -3.58280000       1.39380000
H       -3.54820000      -2.59300000       3.59920000
H       -2.67880000      -1.13090000       4.11930000
H       -4.19390000      -0.97180000       3.25510000
