16
Properties=species:S:1:pos:R:3 gdb_4843=T pbc="F F F"
C        0.23030000       0.99570000       0.67590000
N       -0.10310000       0.13480000      -0.46600000
C       -1.33220000      -0.54680000      -0.37340000
C       -2.62620000      -0.22420000      -0.69890000
C       -3.45670000      -1.35250000      -0.39510000
C       -2.62630000      -2.31740000       0.11940000
O       -2.83260000      -3.57950000       0.58140000
N       -1.34900000      -1.83950000       0.13610000
H        1.20580000       1.46120000       0.50300000
H       -0.51160000       1.78660000       0.86540000
H        0.30480000       0.38420000       1.57990000
H       -0.06360000       0.66740000      -1.32600000
H       -2.95450000       0.71980000      -1.10730000
H       -4.52420000      -1.43470000      -0.53030000
H       -3.77350000      -3.76900000       0.51950000
H       -0.53110000      -2.36860000       0.38530000
