25
Properties=species:S:1:pos:R:3 gdb_96545=T pbc="F F F"
C       -0.04750000       1.59750000       0.06320000
C        0.04490000       0.06500000       0.01540000
C        0.62900000      -0.43670000      -1.32380000
C        0.02080000      -1.76620000      -1.80140000
C        0.38640000      -3.01460000      -0.98500000
C        0.16700000      -2.92340000       0.53510000
C        1.14790000      -1.96470000       1.23270000
C        0.78440000      -0.46590000       1.25720000
O        1.97680000       0.30780000       1.40950000
H        0.93870000       2.05300000      -0.05330000
H       -0.69680000       1.96600000      -0.73770000
H       -0.45980000       1.94230000       1.01780000
H       -0.98060000      -0.32170000       0.09010000
H        0.43160000       0.31810000      -2.09400000
H        1.72100000      -0.50950000      -1.25000000
H       -1.07280000      -1.65480000      -1.81540000
H        0.31640000      -1.94260000      -2.84320000
H       -0.18670000      -3.86340000      -1.37860000
H        1.44380000      -3.25890000      -1.15800000
H       -0.87190000      -2.64760000       0.75970000
H        0.30550000      -3.92570000       0.95700000
H        1.30010000      -2.28670000       2.27140000
H        2.12580000      -2.05110000       0.74260000
H        0.12190000      -0.28000000       2.12010000
H        2.46660000      -0.05080000       2.15610000
