21
Properties=species:S:1:pos:R:3 gdb_74917=T pbc="F F F"
C       -0.00180000       1.51820000       0.06660000
C        0.00120000       0.02030000      -0.03270000
C       -0.03280000      -0.67610000      -1.17610000
C       -0.02220000      -2.17830000      -1.04180000
C       -1.19900000      -2.58760000      -0.10670000
C       -0.70160000      -2.12100000       1.24970000
C        0.80330000      -2.11470000       1.20100000
C        1.21590000      -2.57750000      -0.18480000
C        0.04500000      -0.78440000       1.21690000
H        0.89340000       1.88560000       0.58480000
H       -0.03590000       1.98380000      -0.92230000
H       -0.86440000       1.87830000       0.64190000
H       -0.06640000      -0.20010000      -2.15080000
H       -0.05140000      -2.68430000      -2.00790000
H       -2.14430000      -2.12760000      -0.41120000
H       -1.33040000      -3.67620000      -0.10310000
H       -1.24930000      -2.37770000       2.14890000
H        1.41010000      -2.36660000       2.06290000
H        1.35630000      -3.66500000      -0.19000000
H        2.13560000      -2.10970000      -0.54960000
H        0.07300000      -0.23770000       2.15370000
