18
Properties=species:S:1:pos:R:3 gdb_47503=T pbc="F F F"
O        0.05180000       0.10440000       0.58710000
C       -0.01350000       1.18110000       0.06090000
C       -1.34350000       1.90290000      -0.17540000
N       -1.33650000       3.05780000      -1.06730000
C       -0.13880000       3.86110000      -0.82890000
C        1.11520000       3.04480000      -1.02000000
C        1.80480000       2.96940000      -2.35650000
C        2.46620000       3.66040000      -1.17700000
O        1.13230000       1.82700000      -0.27610000
H       -2.05950000       1.15550000      -0.52350000
H       -1.68780000       2.21800000       0.81980000
H       -1.32660000       2.73630000      -2.03120000
H       -0.12850000       4.72240000      -1.50320000
H       -0.18580000       4.24760000       0.19790000
H        2.20230000       2.00490000      -2.64960000
H        1.42540000       3.57800000      -3.17110000
H        2.53950000       4.74270000      -1.17850000
H        3.29220000       3.14560000      -0.70020000
