20
Properties=species:S:1:pos:R:3 gdb_8138=T pbc="F F F"
C        0.04540000       1.49890000       0.07230000
C       -0.01030000       0.00540000       0.00640000
C       -0.07840000      -0.76020000      -1.08820000
C       -0.04860000      -2.22460000      -0.78170000
C       -0.88270000      -3.18320000      -1.59820000
C        1.24690000      -2.68170000      -0.13420000
C        0.07850000      -2.28070000       0.73480000
C        0.02760000      -0.85000000       1.26360000
H        0.97990000       1.84570000       0.53250000
H       -0.02710000       1.94940000      -0.92150000
H       -0.76960000       1.90060000       0.68880000
H       -0.12220000      -0.38300000      -2.10560000
H       -0.54540000      -3.21620000      -2.64120000
H       -0.81650000      -4.20080000      -1.20010000
H       -1.93920000      -2.89170000      -1.60070000
H        1.48010000      -3.74190000      -0.17570000
H        2.11130000      -2.02730000      -0.19260000
H       -0.41820000      -3.06390000       1.29680000
H        0.88970000      -0.60300000       1.89860000
H       -0.86440000      -0.67680000       1.88260000
