16
Properties=species:S:1:pos:R:3 gdb_19651=T pbc="F F F"
O        0.50190000       0.22640000       0.86120000
C       -0.23770000       0.44760000      -0.33300000
C       -1.54150000      -0.26010000      -0.18710000
C       -2.77330000      -0.39720000      -1.13690000
C       -3.68950000      -0.51110000       0.07380000
C       -3.07920000      -1.76310000      -0.53770000
C       -1.84660000      -1.62700000       0.40620000
C       -2.45950000      -0.37080000       1.02060000
H        1.34680000       0.67710000       0.77700000
H       -0.41000000       1.52460000      -0.50230000
H        0.30350000       0.06340000      -1.21470000
H       -2.97800000      -0.01310000      -2.12760000
H       -4.72930000      -0.23050000       0.17530000
H       -3.56620000      -2.61650000      -0.99020000
H       -1.16960000      -2.34510000       0.84780000
H       -2.33250000       0.03810000       2.01330000
