14
Properties=species:S:1:pos:R:3 gdb_27799=T pbc="F F F"
C        0.06140000       1.48000000       0.00250000
C       -0.07240000      -0.00620000       0.01100000
C       -1.22860000      -0.69890000      -0.12170000
C       -1.10560000      -2.11800000      -0.08260000
O       -2.23000000      -2.82360000      -0.21120000
N        0.01420000      -2.76680000       0.06810000
C        1.18260000      -2.07400000       0.20240000
O        2.27980000      -2.51990000       0.34690000
O        1.09490000      -0.63480000       0.16730000
H        0.72980000       1.79050000      -0.80700000
H       -0.90960000       1.96000000      -0.12700000
H        0.51150000       1.82010000       0.94070000
H       -2.18500000      -0.21550000      -0.24910000
H       -1.97260000      -3.75790000      -0.16340000
