16
Properties=species:S:1:pos:R:3 gdb_48172=T pbc="F F F"
O       -0.54330000       1.49540000      -0.88810000
C        0.21450000       1.12410000      -0.02980000
C        1.49040000       1.87780000       0.35950000
O        2.21350000       1.44530000       1.24010000
N        1.68000000       3.00300000      -0.36340000
C        2.80710000       3.89570000      -0.17240000
C        2.35110000       5.29250000       0.17420000
C        3.04440000       6.47670000      -0.34320000
O        1.80520000       6.04910000      -0.91140000
H        0.06630000       0.20120000       0.56440000
H        0.97470000       3.22570000      -1.05280000
H        3.41100000       3.47220000       0.63490000
H        3.41850000       3.93080000      -1.08220000
H        1.78990000       5.38140000       1.10500000
H        3.00690000       7.40920000       0.21690000
H        3.91860000       6.35240000      -0.98080000
