19
Properties=species:S:1:pos:R:3 gdb_113114=T pbc="F F F"
O       -0.10780000       1.15490000       0.82680000
C       -0.03080000      -0.16030000       0.31750000
C       -1.37310000      -0.60010000      -0.23740000
C       -1.62390000      -2.10460000      -0.46600000
C       -2.75510000      -1.93500000       0.57120000
C       -2.70130000      -2.77910000       1.84230000
C       -3.68550000      -2.29310000       2.88740000
O       -4.52610000      -2.98390000       3.40390000
O       -2.38580000      -0.55210000       0.80680000
H       -0.84970000       1.16090000       1.44390000
H        0.72440000      -0.15730000      -0.47690000
H        0.29530000      -0.87660000       1.09020000
H       -1.66160000       0.04880000      -1.07360000
H       -1.93310000      -2.39750000      -1.46930000
H       -0.80630000      -2.75060000      -0.13550000
H       -3.76010000      -1.98760000       0.13170000
H       -2.91570000      -3.82830000       1.61580000
H       -1.69020000      -2.70620000       2.26550000
H       -3.57810000      -1.21890000       3.15210000
