21
Properties=species:S:1:pos:R:3 gdb_118389=T pbc="F F F"
C       -0.06410000       1.56250000       0.00630000
C        0.04630000       0.03650000      -0.04820000
C        0.68110000      -0.55400000       1.21630000
C        0.77110000      -2.09760000       1.21280000
C        1.67100000      -2.59880000       2.36670000
C        1.80720000      -4.05010000       2.39790000
C        1.89470000      -5.24870000       2.39610000
C       -0.62850000      -2.67020000       1.35280000
O       -1.30810000      -3.07160000       0.44530000
H        0.91950000       2.02940000       0.12970000
H       -0.50800000       1.95970000      -0.91150000
H       -0.69050000       1.88560000       0.84520000
H       -0.94570000      -0.40260000      -0.20350000
H        0.64490000      -0.25980000      -0.91880000
H        1.69450000      -0.15000000       1.34030000
H        0.11760000      -0.22700000       2.10260000
H        1.17380000      -2.44060000       0.25440000
H        2.65910000      -2.13280000       2.27220000
H        1.26080000      -2.24690000       3.32360000
H        1.97620000      -6.30740000       2.40170000
H       -1.01980000      -2.65180000       2.39920000
