21
Properties=species:S:1:pos:R:3 gdb_63917=T pbc="F F F"
C       -0.09340000       1.57790000       0.01620000
C        0.00050000       0.04330000      -0.01150000
C       -1.40860000      -0.56950000      -0.02520000
C        0.84250000      -0.46790000      -1.23280000
C        2.16360000      -0.90740000      -0.61800000
O        2.77870000       0.26710000       0.01790000
C        2.27710000      -0.18650000       1.27620000
C        1.82950000      -1.51790000       0.76450000
C        0.79460000      -0.49640000       1.19220000
H        0.90240000       2.02440000      -0.02270000
H       -0.67280000       1.95060000      -0.83640000
H       -0.59250000       1.92170000       0.92950000
H       -1.94460000      -0.29090000      -0.93960000
H       -1.36620000      -1.66300000       0.02000000
H       -2.00220000      -0.21950000       0.82690000
H        0.35270000      -1.32170000      -1.71670000
H        0.99230000       0.30810000      -1.98920000
H        2.87120000      -1.41690000      -1.27430000
H        2.80190000       0.12130000       2.17310000
H        1.96380000      -2.53050000       1.11750000
H        0.28300000      -0.63960000       2.13920000
