22
Properties=species:S:1:pos:R:3 gdb_13716=T pbc="F F F"
C       -0.06200000       1.56130000      -0.37740000
C       -0.01840000       0.10580000       0.09560000
C       -1.38710000      -0.58070000       0.05330000
C       -1.34980000      -2.04090000       0.52690000
C       -2.71370000      -2.68600000       0.48090000
O       -3.23450000      -3.03640000      -0.80980000
C       -2.98820000      -4.09000000       0.12910000
C       -1.94580000      -5.11730000      -0.23180000
H        0.92960000       2.02330000      -0.34240000
H       -0.42620000       1.63080000      -1.40830000
H       -0.73120000       2.16140000       0.24930000
H        0.68920000      -0.45990000      -0.52520000
H        0.37770000       0.06370000       1.11920000
H       -2.09760000      -0.01540000       0.67270000
H       -1.78410000      -0.55280000      -0.96920000
H       -0.64430000      -2.60540000      -0.09090000
H       -0.97650000      -2.08560000       1.55960000
H       -3.45310000      -2.19480000       1.12020000
H       -3.90440000      -4.51830000       0.54360000
H       -1.04330000      -4.65910000      -0.64030000
H       -1.67150000      -5.70770000       0.64950000
H       -2.34350000      -5.80690000      -0.98400000
