23
Properties=species:S:1:pos:R:3 gdb_114090=T pbc="F F F"
C       -0.22090000       1.53570000       0.02280000
C        0.01430000       0.04160000       0.01610000
C       -1.20730000      -0.90420000       0.13590000
C       -0.42940000      -1.77920000       1.16330000
C        0.73420000      -0.74110000       1.18500000
C        1.94240000      -1.00800000       0.25430000
C        2.57310000      -2.38360000       0.18550000
O        3.61960000      -2.32630000      -0.77700000
C        1.11460000      -0.49130000      -0.95860000
H        0.72090000       2.09070000       0.10490000
H       -0.71210000       1.85910000      -0.90390000
H       -0.86110000       1.83710000       0.85990000
H       -2.07460000      -0.40940000       0.58460000
H       -1.53480000      -1.39270000      -0.78740000
H       -0.93390000      -1.89800000       2.12480000
H       -0.15910000      -2.77680000       0.80850000
H        0.94470000      -0.29270000       2.15860000
H        2.73920000      -0.29290000       0.48680000
H        2.95920000      -2.66670000       1.17950000
H        1.82270000      -3.13710000      -0.10020000
H        3.98300000      -3.21070000      -0.87860000
H        0.76240000      -1.28570000      -1.62470000
H        1.60740000       0.26810000      -1.57010000
