22
Properties=species:S:1:pos:R:3 gdb_121864=T pbc="F F F"
C       -0.25980000       1.64180000      -0.14190000
C       -0.02240000       0.14200000       0.02060000
C        0.73560000      -0.24420000       1.28950000
C        2.25480000      -0.01230000       1.22520000
C        2.90540000      -0.58050000       2.46750000
N        4.43930000      -0.43250000       2.39150000
H        4.68510000       0.55560000       2.28810000
H        4.92350000      -0.80550000       3.21350000
H        4.78730000      -0.91930000       1.56110000
C       -1.38110000      -0.71210000      -0.04230000
O       -2.29890000      -0.17740000      -0.68220000
O       -1.31710000      -1.82010000       0.53460000
H        0.66410000       2.21610000      -0.31230000
H       -0.93850000       1.79380000      -0.98270000
H       -0.75230000       2.05680000       0.74670000
H        0.56310000      -0.21760000      -0.84200000
H        0.33010000       0.30310000       2.15270000
H        0.50900000      -1.30860000       1.43910000
H        2.65790000      -0.51810000       0.33600000
H        2.49310000       1.05760000       1.13350000
H        2.60630000      -0.06380000       3.38200000
H        2.71850000      -1.65040000       2.58080000
