23
Properties=species:S:1:pos:R:3 gdb_86339=T pbc="F F F"
C       -0.84950000       1.00720000      -1.05380000
C        0.08120000      -0.14780000      -0.74480000
O        1.33220000      -0.06080000      -1.46590000
C        2.09920000      -0.36770000      -0.27850000
C        3.28620000       0.55660000      -0.09830000
C        0.83210000      -0.23180000       0.61750000
C        0.74480000       0.94700000       1.55130000
C       -0.28670000       0.95980000       2.65460000
C        1.17390000       0.80070000       2.99210000
H       -0.38350000       1.97050000      -0.83190000
H       -1.11120000       0.99470000      -2.11680000
H       -1.77410000       0.92300000      -0.47350000
H       -0.42570000      -1.09590000      -0.98160000
H        2.45270000      -1.40960000      -0.31650000
H        2.97810000       1.60420000      -0.05520000
H        3.82860000       0.31250000       0.82110000
H        3.97440000       0.44060000      -0.94170000
H        0.60310000      -1.14280000       1.17910000
H        0.95370000       1.91330000       1.10310000
H       -0.77250000       1.89910000       2.89460000
H       -0.92810000       0.09060000       2.75870000
H        1.51370000      -0.17550000       3.32290000
H        1.68820000       1.63090000       3.46320000
