17
Properties=species:S:1:pos:R:3 gdb_47380=T pbc="F F F"
O       -0.07320000      -0.05640000       0.29460000
C       -0.04570000       1.12650000       0.05790000
C       -1.32600000       1.96220000       0.00200000
O       -1.30460000       2.98310000      -0.97880000
C       -0.17710000       3.82560000      -0.88540000
C        1.12970000       3.04900000      -1.15120000
C        1.25030000       1.90760000      -0.10840000
C        1.17490000       2.53220000      -2.51640000
C        1.21580000       2.09550000      -3.63500000
H       -2.16940000       1.30700000      -0.22190000
H       -1.48140000       2.39280000       1.00970000
H       -0.31710000       4.61080000      -1.63150000
H       -0.11830000       4.29530000       0.11180000
H        1.96930000       3.74210000      -1.00900000
H        1.46740000       2.35870000       0.87050000
H        2.06010000       1.21440000      -0.34220000
H        1.24870000       1.71290000      -4.62520000
