17
Properties=species:S:1:pos:R:3 gdb_22660=T pbc="F F F"
C        0.25820000       1.40340000       0.12680000
N        0.13570000      -0.04330000       0.04550000
C        0.50710000      -0.64800000      -0.99100000
C        0.42830000      -2.14980000      -1.19140000
C        0.93550000      -2.33510000      -2.59260000
C        1.32570000      -0.98480000      -3.14260000
O        1.04610000      -0.04560000      -2.10520000
N        1.00720000      -3.45530000      -3.18570000
O        1.52320000      -3.29120000      -4.48360000
H        1.07020000       1.66030000       0.81800000
H        0.45420000       1.89430000      -0.83290000
H       -0.66300000       1.81240000       0.55470000
H        1.04620000      -2.66780000      -0.45160000
H       -0.59650000      -2.50670000      -1.05950000
H        2.38950000      -0.94270000      -3.40300000
H        0.75040000      -0.73130000      -4.04070000
H        1.52490000      -4.19300000      -4.82180000
