16
Properties=species:S:1:pos:R:3 gdb_18866=T pbc="F F F"
O        0.13810000       1.37340000      -0.53540000
C        0.10710000       0.03600000      -0.13180000
C       -1.27430000      -0.69010000      -0.07340000
C       -1.80950000      -1.46210000      -1.34340000
C       -1.30650000      -1.21060000      -2.77750000
C        0.10820000      -0.74570000      -2.45170000
C        0.41410000      -1.06590000      -1.17860000
C       -0.65880000      -1.97720000      -0.56130000
H        0.90330000       1.79940000      -0.13930000
H        0.59500000      -0.09260000       0.84510000
H       -1.95520000      -0.58420000       0.76820000
H       -2.80840000      -1.86520000      -1.18330000
H       -1.42290000      -2.12070000      -3.38320000
H       -1.82380000      -0.40330000      -3.30980000
H        0.49940000       0.15140000      -2.92030000
H       -0.52200000      -2.91740000      -0.04510000
