21
Properties=species:S:1:pos:R:3 gdb_111093=T pbc="F F F"
C       -0.14790000       1.54670000       0.06090000
C        0.18560000       0.05450000      -0.05520000
C        0.81690000      -0.50870000       1.21100000
C       -0.14800000      -0.84970000       2.40390000
O       -0.52850000      -2.06600000       1.67270000
C        0.89480000      -2.07020000       1.32510000
C        1.56090000      -2.25260000       2.70720000
C        2.70500000      -3.14920000       3.02340000
C        0.83340000      -1.40600000       3.44450000
H        0.74820000       2.14060000       0.27350000
H       -0.58610000       1.92660000      -0.86700000
H       -0.86630000       1.73330000       0.86640000
H       -0.71680000      -0.51930000      -0.28730000
H        0.88180000      -0.09610000      -0.89120000
H        1.72750000       0.03420000       1.48430000
H       -0.98660000      -0.22520000       2.71130000
H        1.16010000      -2.72890000       0.49670000
H        3.58710000      -2.90120000       2.41890000
H        2.98890000      -3.07960000       4.07710000
H        2.46240000      -4.19700000       2.80470000
H        0.89740000      -1.15040000       4.49230000
