12
Properties=species:S:1:pos:R:3 gdb_129453=T pbc="F F F"
N       -0.03070000       1.29390000       0.00570000
C        0.04900000      -0.05830000       0.00090000
O        1.06540000      -0.71400000      -0.00960000
C       -1.30120000      -0.72300000       0.01010000
N       -2.43180000      -0.12120000       0.02110000
O       -3.38550000      -1.16100000       0.02590000
C       -2.71530000      -2.36290000       0.01670000
N       -3.16520000      -3.52750000       0.01690000
O       -1.37090000      -2.06720000       0.00650000
H        0.82470000       1.82400000       0.00000000
H       -0.91830000       1.76910000       0.01440000
H       -4.18160000      -3.53530000       0.02530000
