18
Properties=species:S:1:pos:R:3 gdb_72303=T pbc="F F F"
C       -0.14480000       1.60760000      -0.06800000
C       -0.06450000       0.11880000       0.05650000
C       -0.08870000      -1.00730000      -0.90160000
N        1.38230000      -1.47490000      -0.66540000
C        1.05010000      -0.83280000       0.62100000
N        0.77080000      -1.61510000       1.58770000
C       -0.69840000      -1.49910000       1.73560000
C       -1.10180000      -0.91470000       0.35440000
N       -2.45670000      -0.68880000      -0.04440000
H        0.70710000       2.01350000      -0.62460000
H       -1.05960000       1.88790000      -0.60040000
H       -0.16000000       2.09260000       0.91420000
H       -0.49650000      -1.07020000      -1.90550000
H        1.90450000      -0.82380000      -1.26360000
H       -1.07170000      -2.51180000       1.92850000
H       -1.06310000      -0.84990000       2.54840000
H       -2.97620000      -1.56070000      -0.08070000
H       -2.93290000      -0.08170000       0.61680000
