19
Properties=species:S:1:pos:R:3 gdb_36362=T pbc="F F F"
C        0.14240000      -1.18580000      -0.67610000
C        0.04380000      -0.07460000      -0.23020000
C       -0.04900000       1.27270000       0.32240000
C        1.30490000       1.96210000       0.39910000
O        1.76890000       2.63310000      -0.77240000
C        1.47800000       3.42380000       0.38980000
C        0.37200000       4.41920000       0.30160000
C        0.17470000       5.39330000       1.44180000
C        0.71240000       5.88080000       0.12400000
H        0.22220000      -2.16490000      -1.07890000
H       -0.73340000       1.87440000      -0.28380000
H       -0.47700000       1.22580000       1.33310000
H        2.06870000       1.36550000       0.90110000
H        2.37150000       3.80900000       0.88930000
H       -0.52280000       4.07300000      -0.20330000
H       -0.84120000       5.65190000       1.71770000
H        0.86020000       5.33560000       2.28100000
H        1.76240000       6.14850000       0.07090000
H        0.06790000       6.47790000      -0.51080000
