15
Properties=species:S:1:pos:R:3 gdb_26069=T pbc="F F F"
N       -0.22580000       1.37580000       0.11340000
C        0.02210000      -0.06940000      -0.03430000
C        0.79960000      -0.42270000      -1.23510000
C        1.41390000      -0.67410000      -2.23790000
C        0.69890000      -0.57230000       1.21110000
C        0.34680000      -1.56940000       2.05480000
O        1.28400000      -1.63700000       3.04910000
C        2.16120000      -0.65580000       2.74420000
N        1.87740000       0.00810000       1.67400000
H        0.66660000       1.82380000       0.30860000
H       -0.54250000       1.74610000      -0.77860000
H       -0.95360000      -0.56720000      -0.10530000
H        1.96570000      -0.90080000      -3.11640000
H       -0.46400000      -2.27480000       2.10500000
H        2.99690000      -0.52590000       3.41360000
