18
Properties=species:S:1:pos:R:3 gdb_45373=T pbc="F F F"
O        0.03950000       0.07040000       0.74570000
C        0.00040000       1.11750000       0.16040000
C       -1.31860000       1.85060000      -0.13210000
N       -1.23630000       3.06430000      -0.94910000
C       -0.90850000       2.75700000      -2.35900000
C        0.64890000       2.62120000      -2.44140000
C        1.08950000       2.94220000      -1.00410000
C       -0.05590000       3.82010000      -0.49730000
O        1.15210000       1.72610000      -0.21760000
H       -2.00380000       1.13130000      -0.58780000
H       -1.74430000       2.10310000       0.84650000
H       -1.43960000       1.85990000      -2.68360000
H       -1.25200000       3.58770000      -2.98330000
H        0.98660000       1.62500000      -2.73340000
H        1.07780000       3.33950000      -3.14580000
H        2.08850000       3.37350000      -0.92860000
H       -0.03310000       4.80470000      -0.97750000
H       -0.05690000       3.95730000       0.58670000
