18
Properties=species:S:1:pos:R:3 gdb_46913=T pbc="F F F"
O        0.03100000      -0.06250000       0.52680000
C       -0.00050000       1.08800000       0.12780000
C       -1.35370000       1.69230000      -0.27540000
C       -1.50420000       3.20380000      -0.50720000
C       -0.68250000       3.66450000      -1.69220000
O        0.06060000       4.88240000      -1.57640000
C        0.78000000       3.64610000      -1.59450000
C        1.40420000       3.20750000      -0.28210000
N        1.17100000       1.79500000      -0.00330000
H       -1.64720000       1.14980000      -1.18370000
H       -2.05010000       1.35540000       0.49740000
H       -2.56260000       3.42840000      -0.67650000
H       -1.20850000       3.77020000       0.38010000
H       -1.13080000       3.51070000      -2.67420000
H        1.37020000       3.47390000      -2.49360000
H        2.48790000       3.34750000      -0.31590000
H        1.02780000       3.85750000       0.51610000
H        1.95930000       1.25360000       0.32060000
