21
Properties=species:S:1:pos:R:3 gdb_63756=T pbc="F F F"
C       -0.15390000       1.54870000      -0.14000000
C       -0.03470000       0.03500000      -0.03840000
O       -1.27280000      -0.60350000      -0.27690000
C        1.21390000      -0.54850000      -0.83660000
C        1.90920000      -0.57620000       0.50000000
C        2.97310000      -0.18790000       1.19420000
C        2.56240000       0.07000000       2.64290000
C        1.00850000       0.26340000       2.55750000
C        0.62800000      -0.51000000       1.28100000
H        0.80000000       2.03910000       0.07400000
H       -0.45470000       1.84130000      -1.15400000
H       -0.90630000       1.92300000       0.56080000
H       -1.63940000      -0.25520000      -1.09720000
H        0.96100000      -1.54280000      -1.21850000
H        1.65170000       0.05310000      -1.63820000
H        3.97540000      -0.00750000       0.82230000
H        2.82220000      -0.77290000       3.29920000
H        3.06540000       0.94880000       3.06210000
H        0.49050000      -0.08770000       3.45400000
H        0.78390000       1.32980000       2.44830000
H        0.18270000      -1.49110000       1.48550000
