16
Properties=species:S:1:pos:R:3 gdb_42568=T pbc="F F F"
O        0.05470000       0.08850000       0.12500000
C        0.02040000       1.28420000       0.13370000
C       -1.06000000       2.31810000       0.08760000
C       -0.45830000       3.57690000       0.65420000
N       -0.14520000       3.21480000      -0.75270000
C        1.04450000       2.40120000      -0.10920000
C        0.94130000       3.28560000       1.12980000
C        1.93380000       4.30470000       1.59280000
C        1.54230000       3.14540000       2.49160000
H       -2.11560000       2.20920000      -0.12660000
H       -1.08910000       4.42780000       0.89180000
H        1.96860000       2.23560000      -0.65780000
H        2.92350000       4.29640000       1.14840000
H        1.56720000       5.29440000       1.84700000
H        0.91570000       3.35450000       3.35220000
H        2.26820000       2.35490000       2.65070000
