17
Properties=species:S:1:pos:R:3 gdb_4959=T pbc="F F F"
C       -0.00170000       1.52310000      -0.00060000
C        0.00240000       0.01610000      -0.00480000
C       -0.05230000      -0.70400000      -1.19700000
C       -0.03430000      -2.09650000      -1.21870000
C        0.04040000      -2.78940000      -0.01420000
C        0.09050000      -2.09510000       1.18870000
C        0.07340000      -0.69540000       1.21060000
N        0.19000000      -0.00650000       2.42360000
H        0.87310000       1.92720000       0.52360000
H        0.00330000       1.91830000      -1.01920000
H       -0.89030000       1.93380000       0.50050000
H       -0.10800000      -0.15290000      -2.13180000
H       -0.07600000      -2.62950000      -2.16190000
H        0.05520000      -3.87450000      -0.00570000
H        0.14640000      -2.63740000       2.12880000
H       -0.05220000      -0.55710000       3.23500000
H       -0.26620000       0.89390000       2.44870000
