16
Properties=species:S:1:pos:R:3 gdb_15412=T pbc="F F F"
C        0.07090000       1.31230000       0.46510000
O       -0.01740000      -0.06280000       0.16820000
C       -1.34510000      -0.50910000       0.02930000
C       -1.29220000      -1.97850000      -0.30310000
O       -1.34480000      -2.91790000       0.75790000
C       -2.44300000      -2.90410000      -0.16050000
C       -3.75470000      -2.44800000       0.39350000
O       -4.81320000      -2.71940000      -0.11270000
H        1.13180000       1.55970000       0.54230000
H       -0.38410000       1.92960000      -0.32560000
H       -0.42250000       1.55560000       1.41870000
H       -1.91820000      -0.34420000       0.95460000
H       -1.85710000       0.03470000      -0.78430000
H       -0.56990000      -2.22140000      -1.08370000
H       -2.51060000      -3.74960000      -0.84380000
H       -3.67570000      -1.84610000       1.32440000
