18
Properties=species:S:1:pos:R:3 gdb_37698=T pbc="F F F"
C       -0.04840000       1.55490000       0.01710000
N        1.46050000       1.27270000       0.00090000
C        1.21770000       0.05280000       0.91820000
C        1.91390000      -0.96030000      -0.00570000
C        1.21730000      -2.30360000       0.00060000
C       -0.11800000      -2.39070000       0.01470000
C       -0.99650000      -1.15000000       0.02500000
C       -0.05320000       0.02720000       0.01600000
C        1.19820000       0.05420000      -0.91300000
H       -0.38460000       2.07500000       0.92110000
H       -0.40370000       2.07640000      -0.87860000
H        1.26050000       0.14590000       2.00550000
H        3.00500000      -0.99740000      -0.01730000
H        1.82600000      -3.20270000      -0.00660000
H       -0.61080000      -3.35870000       0.01920000
H       -1.66630000      -1.14560000      -0.84610000
H       -1.64770000      -1.14700000       0.91020000
H        1.21800000       0.14910000      -2.00080000
