15
Properties=species:S:1:pos:R:3 gdb_14316=T pbc="F F F"
O        0.09040000      -0.00600000       0.10380000
C        0.02970000       1.19650000      -0.00570000
C       -1.31400000       2.01320000       0.03010000
C       -0.88010000       3.39970000      -0.44380000
C       -0.78820000       4.77270000       0.31350000
N        0.68960000       4.73310000       0.02520000
C        0.60150000       3.37840000      -0.22270000
C        1.15230000       2.16350000      -0.04750000
H       -2.08470000       1.53480000      -0.57750000
H       -1.66000000       2.01230000       1.06960000
H       -1.14490000       3.57790000      -1.48910000
H       -1.30660000       5.62990000      -0.12150000
H       -1.00650000       4.69600000       1.38380000
H        1.38210000       5.11920000       0.65500000
H        2.16920000       1.89340000       0.19660000
