19
Properties=species:S:1:pos:R:3 gdb_41655=T pbc="F F F"
C       -0.00140000       1.58710000      -0.00460000
O        1.26500000       2.21910000      -0.07620000
C        2.05630000       1.76290000      -1.15980000
C        2.20500000       0.24540000      -1.17350000
C        2.49930000      -0.49320000       0.13600000
C        1.16350000      -0.60730000       0.88600000
C        1.52480000      -1.59840000      -0.19460000
C        0.87540000      -0.56780000      -1.19450000
C        0.10690000       0.06610000       0.00440000
H       -0.46660000       1.95730000       0.91540000
H       -0.63920000       1.90160000      -0.85100000
H        1.62380000       2.09500000      -2.12150000
H        3.02780000       2.25590000      -1.04640000
H        2.88140000      -0.07420000      -1.97270000
H        3.43960000      -0.56850000       0.66700000
H        1.14240000      -0.76470000       1.95680000
H        1.61820000      -2.67400000      -0.19200000
H        0.36880000      -0.79320000      -2.13110000
H       -0.87690000      -0.39540000       0.13730000
