13
Properties=species:S:1:pos:R:3 gdb_25314=T pbc="F F F"
O        0.06400000      -0.11250000      -0.00140000
C       -0.00660000       1.10250000       0.00990000
C        1.16300000       1.95600000       0.00330000
C        1.34850000       3.33710000       0.01310000
N        2.69180000       3.63350000      -0.00040000
C        3.30330000       2.46480000      -0.01780000
N        2.43360000       1.42920000      -0.01640000
C        0.34010000       4.32800000       0.03380000
C       -0.52890000       5.16080000       0.05110000
H       -0.97460000       1.63860000       0.02610000
H        4.37410000       2.32450000      -0.03180000
H        2.62070000       0.43790000      -0.02720000
H       -1.28970000       5.90170000       0.06560000
