19
Properties=species:S:1:pos:R:3 gdb_79335=T pbc="F F F"
C        0.02640000       1.44100000      -0.08520000
C       -0.01080000      -0.05150000      -0.01790000
O        1.01040000      -0.71450000      -0.76950000
C        0.68670000      -2.08330000      -0.45920000
C        0.62780000      -2.09920000       1.07770000
C       -0.31460000      -0.90490000       1.19240000
C       -1.23430000      -0.94170000      -0.03300000
C       -0.80580000      -2.14330000      -0.87360000
O       -1.01390000      -1.98590000      -2.25770000
H        0.97920000       1.82540000       0.29280000
H       -0.09770000       1.79170000      -1.11520000
H       -0.77940000       1.86730000       0.51840000
H        1.37280000      -2.75430000      -0.97140000
H        0.21210000      -3.03170000       1.47030000
H        1.60470000      -1.91810000       1.53500000
H       -0.62200000      -0.47640000       2.13730000
H       -2.24650000      -0.56030000      -0.03300000
H       -1.28660000      -3.08080000      -0.58220000
H       -0.45030000      -1.24850000      -2.52560000
