18
Properties=species:S:1:pos:R:3 gdb_124820=T pbc="F F F"
C        0.18870000       1.50570000       0.01060000
C        0.05940000      -0.00160000       0.22430000
O        0.10210000      -0.32720000       1.61640000
C       -1.27050000      -0.54690000      -0.30570000
C       -1.38500000      -2.03750000      -0.24370000
C       -1.19670000      -2.90590000       0.80850000
N       -1.44140000      -4.12430000       0.27390000
N       -1.76240000      -4.04030000      -1.02980000
N       -1.72800000      -2.77650000      -1.34240000
H        1.13320000       1.87740000       0.42420000
H        0.17270000       1.75480000      -1.05530000
H       -0.63120000       2.03470000       0.50670000
H        0.87960000      -0.51510000      -0.30230000
H        0.95300000      -0.04060000       1.96240000
H       -2.07680000      -0.07350000       0.26930000
H       -1.39720000      -0.24690000      -1.34960000
H       -0.91150000      -2.74810000       1.83310000
H       -1.40670000      -5.02930000       0.71520000
