16
Properties=species:S:1:pos:R:3 gdb_10913=T pbc="F F F"
C       -0.19130000       1.48860000       0.11770000
C        0.14490000       0.04080000      -0.01830000
O       -0.69420000      -0.91140000       0.67600000
C        0.72200000      -0.94130000       0.92720000
C        1.27060000      -1.81460000      -0.21140000
O        0.61220000      -3.04900000      -0.37840000
C        0.77590000      -0.70020000      -1.21690000
O       -0.04130000      -1.13460000      -2.25900000
H        0.65570000       2.10960000      -0.19060000
H       -1.04450000       1.74280000      -0.51990000
H       -0.45020000       1.73150000       1.15160000
H        1.04900000      -0.83820000       1.95580000
H        2.34640000      -1.99400000      -0.21690000
H       -0.27930000      -2.90710000      -0.02580000
H        1.61890000      -0.11800000      -1.61180000
H       -0.17440000      -2.08140000      -2.10510000
