25
Properties=species:S:1:pos:R:3 gdb_122673=T pbc="F F F"
C        0.07720000       1.52390000      -0.01810000
C        0.00440000       0.00620000      -0.03280000
O        0.71050000      -0.46960000      -1.15860000
C        0.69410000      -1.87630000      -1.27780000
C        1.48200000      -2.27940000      -2.51330000
C        2.97440000      -1.90330000      -2.47460000
C        3.59170000      -2.80660000      -3.55110000
C        2.87650000      -4.16040000      -3.35040000
C        1.47630000      -3.81110000      -2.76650000
H        1.11760000       1.85710000       0.03450000
H       -0.36860000       1.93790000      -0.92710000
H       -0.46040000       1.92440000       0.84660000
H        0.43710000      -0.41070000       0.89310000
H       -1.04620000      -0.33010000      -0.07240000
H        1.13950000      -2.34320000      -0.38000000
H       -0.34610000      -2.24140000      -1.34590000
H        1.02620000      -1.77230000      -3.37340000
H        3.14590000      -0.83720000      -2.63880000
H        3.39220000      -2.15480000      -1.48960000
H        3.36300000      -2.40140000      -4.54470000
H        4.68040000      -2.88660000      -3.47980000
H        2.80960000      -4.73690000      -4.27720000
H        3.43690000      -4.77630000      -2.63930000
H        1.30620000      -4.35270000      -1.82880000
H        0.66460000      -4.09860000      -3.44070000
