16
Properties=species:S:1:pos:R:3 gdb_128523=T pbc="F F F"
C        0.17190000       1.40240000       0.23250000
O       -0.24700000       0.08720000      -0.12650000
C        0.48730000      -0.48740000      -1.12480000
C       -0.03450000      -0.98880000      -2.30360000
N       -1.33060000      -0.92260000      -2.81660000
N        0.99650000      -1.57100000      -2.96380000
N        2.19010000      -1.44220000      -2.29980000
C        1.86750000      -0.80430000      -1.19050000
O        2.78040000      -0.50650000      -0.23870000
H        1.20230000       1.40130000       0.60420000
H        0.10110000       2.08710000      -0.62290000
H       -0.50090000       1.73800000       1.02480000
H       -1.93720000      -0.46800000      -2.14340000
H       -1.71640000      -1.83470000      -3.03690000
H        1.00290000      -1.88510000      -3.91760000
H        3.63030000      -0.84150000      -0.55230000
