15
Properties=species:S:1:pos:R:3 gdb_50196=T pbc="F F F"
O       -0.88240000       1.51700000      -0.37370000
C        0.03250000       1.34830000       0.38870000
C        1.41340000       1.92700000       0.19130000
C        1.60070000       3.00340000      -0.91220000
C        2.11690000       4.01280000       0.16760000
C        1.87190000       2.95300000       1.26720000
O        0.76140000       3.74200000       1.79080000
C        0.97780000       4.75190000       0.86340000
O        0.39150000       5.77750000       0.76640000
H       -0.08660000       0.73930000       1.31220000
H        2.12780000       1.09860000       0.11980000
H        2.36050000       2.74890000      -1.65130000
H        0.68270000       3.29010000      -1.42620000
H        3.04670000       4.54860000      -0.00650000
H        2.56490000       2.66760000       2.05610000
