17
Properties=species:S:1:pos:R:3 gdb_19957=T pbc="F F F"
O        0.30180000       0.06810000      -0.13570000
C        0.09380000       1.24740000      -0.04110000
N       -1.05800000       1.99670000      -0.02150000
C       -0.40430000       3.29480000       0.15690000
C        0.96060000       2.53360000       0.11810000
C        1.84600000       2.60340000       1.33070000
C        3.27390000       2.12830000       1.24810000
C        2.98090000       3.59940000       1.39750000
H       -2.02940000       1.73060000      -0.08260000
H       -0.57490000       4.00250000      -0.66060000
H       -0.62330000       3.78010000       1.11380000
H        1.53270000       2.74220000      -0.79130000
H        1.33270000       2.40190000       2.26780000
H        3.68340000       1.59280000       2.09680000
H        3.63190000       1.77350000       0.28770000
H        3.14420000       4.24100000       0.53760000
H        3.19010000       4.07400000       2.34970000
