19
Properties=species:S:1:pos:R:3 gdb_115177=T pbc="F F F"
C        0.59180000       1.25210000       0.21490000
O        0.57810000      -0.16020000       0.08930000
C        0.39080000      -0.60870000      -1.22180000
O        1.48860000      -0.27040000      -2.06480000
C        2.53120000      -1.21190000      -1.84570000
C        1.84840000      -2.46660000      -1.29770000
O        2.38610000      -3.49670000      -0.99140000
C        0.35540000      -2.14070000      -1.20760000
C       -0.36890000      -2.83870000      -0.06320000
H        1.40540000       1.69780000      -0.36820000
H       -0.36130000       1.68790000      -0.11950000
H        0.73420000       1.47640000       1.27370000
H       -0.48770000      -0.12990000      -1.67420000
H        3.04130000      -1.41390000      -2.79260000
H        3.27340000      -0.85010000      -1.12150000
H       -0.07010000      -2.44980000      -2.17340000
H       -0.02500000      -2.45610000       0.89910000
H       -1.45020000      -2.68750000      -0.12720000
H       -0.16300000      -3.91150000      -0.10350000
