19
Properties=species:S:1:pos:R:3 gdb_50039=T pbc="F F F"
O        0.22770000      -0.01040000      -0.51860000
C        0.16410000       1.13160000      -0.12980000
C        1.31320000       2.04270000       0.01290000
C        1.08080000       3.55740000      -0.07010000
C        1.42610000       2.97000000       1.23970000
C        0.49270000       2.87260000       2.45450000
C        1.43280000       3.20570000       3.63250000
C        2.79930000       2.81640000       3.06260000
O        2.73430000       3.20530000       1.69260000
H       -0.81680000       1.58150000       0.15930000
H        2.25790000       1.66460000      -0.36100000
H        1.84200000       4.13400000      -0.58260000
H        0.05950000       3.89000000      -0.23150000
H       -0.35160000       3.56240000       2.38220000
H        0.08820000       1.86240000       2.56030000
H        1.41520000       4.27790000       3.84880000
H        1.17800000       2.66670000       4.54760000
H        3.64210000       3.34350000       3.51520000
H        2.97370000       1.73280000       3.15020000
