15
Properties=species:S:1:pos:R:3 gdb_75977=T pbc="F F F"
N        0.01380000       1.35910000       0.14220000
C       -0.02050000      -0.11020000       0.00630000
C       -1.46370000      -0.55500000      -0.01090000
N       -2.08870000      -0.91310000       1.01860000
O       -2.04730000      -0.43060000      -1.26090000
C       -1.33300000      -1.09100000      -2.27940000
O        0.02340000      -0.68620000      -2.39410000
C        0.75660000      -0.50860000      -1.25550000
O        1.95280000      -0.51440000      -1.30780000
H        0.98450000       1.66130000       0.11560000
H       -0.44870000       1.78590000      -0.65700000
H        0.47940000      -0.54600000       0.87170000
H       -3.06070000      -1.13460000       0.79140000
H       -1.36270000      -2.17610000      -2.11180000
H       -1.81370000      -0.83580000      -3.22350000
