14
Properties=species:S:1:pos:R:3 gdb_75861=T pbc="F F F"
O        0.06880000       1.46270000       0.07740000
C        0.04930000       0.06150000      -0.03090000
C       -1.42190000      -0.42890000      -0.12650000
O       -2.30800000      -0.07990000       0.59790000
C       -1.53540000      -1.40340000      -1.30880000
C       -0.20510000      -1.28000000      -1.98870000
C        0.64840000      -0.49420000      -1.31490000
C        1.97650000      -0.16710000      -1.69610000
N        3.06580000       0.13520000      -1.94950000
H        0.94580000       1.73810000       0.36450000
H        0.51050000      -0.41670000       0.84850000
H       -1.72990000      -2.41750000      -0.93440000
H       -2.38520000      -1.14600000      -1.95160000
H        0.02980000      -1.77320000      -2.92430000
