14
Properties=species:S:1:pos:R:3 gdb_7224=T pbc="F F F"
N       -0.00460000       1.33900000       0.15890000
C        0.08110000      -0.01600000       0.04820000
N        1.11150000      -0.77060000      -0.04610000
C       -1.29240000      -0.67930000       0.06840000
O       -2.29040000       0.00120000       0.07160000
C       -1.29650000      -2.20440000       0.07800000
C       -2.62410000      -2.79180000       0.04340000
C       -3.71680000      -3.28830000       0.01450000
H        0.79270000       1.91700000      -0.04300000
H       -0.92650000       1.73910000       0.07070000
H        1.98020000      -0.23210000      -0.05820000
H       -0.67750000      -2.54310000      -0.76090000
H       -0.73630000      -2.52720000       0.96490000
H       -4.68390000      -3.72540000      -0.01160000
