17
Properties=species:S:1:pos:R:3 gdb_66368=T pbc="F F F"
N       -0.05050000       1.44950000       0.06130000
C        0.01250000      -0.00850000      -0.02020000
C        0.72510000      -0.55610000       1.24050000
O        0.62420000      -1.96180000       1.30280000
C       -0.71700000      -2.38020000       1.30460000
O       -1.40440000      -1.98460000       0.14480000
C       -1.42590000      -0.58030000       0.01260000
C        0.71160000      -0.48090000      -1.23560000
N        1.26920000      -0.76800000      -2.20680000
H        0.88830000       1.84010000       0.04730000
H       -0.52220000       1.82420000      -0.75790000
H        1.78990000      -0.30950000       1.23280000
H        0.25310000      -0.07680000       2.11220000
H       -0.71230000      -3.47050000       1.31780000
H       -1.23170000      -1.97900000       2.19840000
H       -1.94460000      -0.10150000       0.85760000
H       -1.96470000      -0.35180000      -0.91050000
