15
Properties=species:S:1:pos:R:3 gdb_54810=T pbc="F F F"
N       -0.07510000       1.26470000       0.08940000
C        0.04020000      -0.08940000       0.03950000
O        1.05390000      -0.73070000       0.21080000
N       -1.18040000      -0.71570000      -0.28910000
C       -1.51010000      -2.13880000      -0.18900000
C       -2.13390000      -2.43270000       1.13150000
C       -2.96950000      -1.75780000       0.03570000
C       -2.51470000      -0.31640000      -0.08220000
O       -3.00190000       0.78110000      -0.02230000
H        0.72420000       1.78380000       0.40840000
H       -0.98540000       1.70070000       0.04930000
H       -1.09180000      -2.85530000      -0.88010000
H       -2.40460000      -3.46770000       1.31930000
H       -1.83040000      -1.87380000       2.01100000
H       -3.87210000      -2.19150000      -0.36760000
