21
Properties=species:S:1:pos:R:3 gdb_41394=T pbc="F F F"
C       -0.04730000       1.55790000      -0.00040000
C        1.51080000       1.55970000      -0.00900000
C        1.52260000       0.02490000       0.15430000
C        2.47870000      -0.94960000      -0.56590000
C        2.62960000      -1.78280000       0.74200000
C        1.80940000      -0.69210000       1.51150000
C        0.45180000      -1.08080000       2.03200000
C       -0.53450000      -0.72560000       1.20310000
C       -0.02880000      -0.00860000      -0.01980000
H       -0.48740000       1.96880000       0.91130000
H       -0.52180000       2.03690000      -0.86020000
H        1.92880000       1.88090000      -0.96840000
H        2.00370000       2.13190000       0.78320000
H        2.06790000      -1.47300000      -1.43490000
H        3.41320000      -0.46810000      -0.87180000
H        2.12750000      -2.75270000       0.71160000
H        3.65560000      -1.93470000       1.08580000
H        2.40860000      -0.13180000       2.23770000
H        0.31130000      -1.60700000       2.97130000
H       -1.58960000      -0.90880000       1.38230000
H       -0.40150000      -0.43450000      -0.95780000
