20
Properties=species:S:1:pos:R:3 gdb_59610=T pbc="F F F"
C        0.07700000       1.53520000      -0.08600000
C        0.03250000       0.00960000       0.07770000
C        0.75380000      -0.43000000       1.35920000
C       -1.42160000      -0.51050000      -0.01630000
C       -1.56760000      -2.04900000       0.06880000
O       -1.97630000      -2.32680000       1.41240000
C       -2.44370000      -1.17920000       1.99650000
O       -2.91630000      -1.13910000       3.09770000
N       -2.27780000      -0.14720000       1.10010000
H        1.11010000       1.89480000      -0.10800000
H       -0.41050000       1.85680000      -1.01260000
H       -0.42050000       2.04130000       0.75010000
H        0.55480000      -0.43320000      -0.78290000
H        0.75570000      -1.51660000       1.48390000
H        1.79530000      -0.09510000       1.34250000
H        0.28280000       0.00320000       2.24760000
H       -1.85030000      -0.14910000      -0.95860000
H       -2.33760000      -2.41660000      -0.61780000
H       -0.63250000      -2.57750000      -0.12930000
H       -2.36180000       0.79410000       1.44560000
