20
Properties=species:S:1:pos:R:3 gdb_9744=T pbc="F F F"
C       -0.35030000       1.64400000       0.01480000
C        0.06860000       0.17020000      -0.00220000
C       -1.17800000      -0.73760000      -0.09020000
O       -1.91950000      -0.59590000      -1.29200000
C        1.02770000      -0.16810000      -1.18460000
C        2.03460000      -1.11250000      -0.57810000
C        1.94750000      -1.15450000       0.74990000
C        0.86370000      -0.24470000       1.27490000
H        0.52270000       2.29940000       0.09530000
H       -0.87660000       1.92250000      -0.90590000
H       -1.01100000       1.86360000       0.86230000
H       -0.86130000      -1.78560000      -0.06120000
H       -1.81720000      -0.56020000       0.78980000
H       -2.34100000       0.26860000      -1.28220000
H        0.47400000      -0.59670000      -2.02690000
H        1.52440000       0.73340000      -1.57120000
H        2.75340000      -1.66270000      -1.17580000
H        2.58330000      -1.74130000       1.40390000
H        1.29440000       0.62930000       1.78370000
H        0.21870000      -0.73490000       2.01710000
