18
Properties=species:S:1:pos:R:3 gdb_7150=T pbc="F F F"
C        0.06800000       1.40570000      -0.09270000
O        0.13430000       0.00670000       0.05890000
C        0.53860000      -0.64580000      -1.10380000
C        0.52390000      -2.15950000      -0.89240000
O       -0.00890000      -2.68790000       0.04430000
C        1.25320000      -2.93530000      -1.98890000
O        0.94820000      -4.29200000      -1.90320000
C        1.63880000      -5.07000000      -2.85320000
H        1.04810000       1.83750000      -0.35100000
H       -0.65230000       1.69800000      -0.87320000
H       -0.25920000       1.81820000       0.86410000
H       -0.13370000      -0.42250000      -1.95480000
H        1.54950000      -0.33130000      -1.42560000
H        0.98630000      -2.51180000      -2.97570000
H        2.33750000      -2.74960000      -1.86250000
H        2.73050000      -4.99400000      -2.72710000
H        1.33580000      -6.10810000      -2.70090000
H        1.39090000      -4.77350000      -3.88490000
