22
Properties=species:S:1:pos:R:3 gdb_64446=T pbc="F F F"
C        0.05100000       1.52840000      -0.05480000
C       -0.01180000       0.00030000       0.00530000
C       -1.49110000      -0.45520000       0.10980000
N        0.69020000      -0.52990000      -1.18000000
C        0.88960000      -1.97500000      -1.23310000
C        1.79070000      -2.39200000      -0.07240000
C        1.15890000      -1.96570000       1.26200000
C        0.72740000      -0.50500000       1.26580000
O        0.90870000       0.21000000       2.22330000
H        1.08690000       1.86250000      -0.14610000
H       -0.50900000       1.89390000      -0.92300000
H       -0.37660000       1.96840000       0.84740000
H       -2.05030000      -0.08240000      -0.75560000
H       -1.59310000      -1.54340000       0.13200000
H       -1.96020000      -0.05440000       1.01370000
H        0.21820000      -0.20300000      -2.01680000
H       -0.04830000      -2.56040000      -1.19560000
H        1.36900000      -2.21070000      -2.18890000
H        1.95580000      -3.47440000      -0.08260000
H        2.76520000      -1.90580000      -0.19030000
H        0.25580000      -2.56810000       1.43870000
H        1.82300000      -2.12330000       2.11530000
