15
Properties=species:S:1:pos:R:3 gdb_11715=T pbc="F F F"
O       -0.04400000       1.43680000      -0.09420000
C        0.03030000       0.04360000      -0.02590000
C        0.38270000      -0.62550000       1.36050000
C       -0.98280000      -1.32620000       1.32210000
N       -1.98440000      -0.21770000       1.20950000
C       -1.30990000      -0.71030000      -0.00790000
C       -1.33580000      -2.59730000       1.84850000
C       -1.61550000      -3.67410000       2.30820000
H       -0.74780000       1.68980000       0.51880000
H        0.69960000      -0.28780000      -0.82210000
H        1.22220000      -1.31940000       1.29160000
H        0.52840000       0.06210000       2.19630000
H       -2.91130000      -0.63980000       1.24530000
H       -1.87810000      -1.11550000      -0.83660000
H       -1.86380000      -4.62480000       2.71060000
