19
Properties=species:S:1:pos:R:3 gdb_91283=T pbc="F F F"
O        0.63330000       0.59930000      -1.03000000
C        0.09950000      -0.31610000      -0.10820000
C        0.17620000      -0.01080000       1.40850000
C       -1.26960000      -0.56620000       1.57770000
C       -2.28830000       0.38510000       2.19660000
C       -2.60080000       1.39440000       1.08450000
O       -3.00610000       2.51660000       1.23930000
C       -2.30370000       0.73140000      -0.27060000
C       -1.44690000      -0.50880000       0.01060000
H        0.41980000       1.49090000      -0.73640000
H        0.57200000      -1.27420000      -0.34340000
H        0.97700000      -0.48680000       1.97850000
H        0.21990000       1.06870000       1.60220000
H       -1.29450000      -1.57030000       2.00150000
H       -3.22470000      -0.13670000       2.43860000
H       -1.95500000       0.89520000       3.10410000
H       -3.26550000       0.46390000      -0.72340000
H       -1.84110000       1.44960000      -0.95460000
H       -1.83690000      -1.39960000      -0.48400000
