14
Properties=species:S:1:pos:R:3 gdb_124147=T pbc="F F F"
C       -0.06070000       1.43070000       0.01660000
C        0.00670000      -0.01910000       0.00100000
C        0.06620000      -1.22260000      -0.01310000
C        0.12210000      -2.63080000      -0.02900000
N        1.17870000      -3.39650000      -0.07090000
C        0.61790000      -4.65070000      -0.06830000
N        1.39080000      -5.77750000      -0.16490000
N       -0.69760000      -4.67540000      -0.01880000
O       -1.03500000      -3.31150000       0.00000000
H        0.94110000       1.87010000      -0.02630000
H       -0.63220000       1.80450000      -0.83980000
H       -0.55000000       1.78980000       0.92840000
H        2.33060000      -5.66240000       0.18190000
H        0.94070000      -6.63070000       0.13020000
