22
Properties=species:S:1:pos:R:3 gdb_89719=T pbc="F F F"
C       -0.02700000       1.49450000       0.01120000
N        0.06650000       0.05320000       0.02150000
C        1.04890000      -0.59030000      -0.88000000
C        1.45640000      -1.50070000       0.28150000
C        0.64390000      -0.60160000       1.21710000
O        1.32680000      -2.91060000       0.24890000
C        2.63470000      -2.34120000       0.50450000
C        3.63910000      -2.54380000      -0.60850000
C        3.15290000      -2.55710000       1.90940000
H        0.94170000       1.99820000       0.20090000
H       -0.40070000       1.83610000      -0.95980000
H       -0.73600000       1.82680000       0.77670000
H        0.61190000      -1.07980000      -1.75690000
H        1.86230000       0.07910000      -1.20670000
H        1.27600000       0.06280000       1.83010000
H       -0.08710000      -1.09920000       1.86320000
H        3.17770000      -2.38900000      -1.58630000
H        4.47950000      -1.84870000      -0.50420000
H        4.04260000      -3.56190000      -0.57850000
H        3.54280000      -3.57480000       2.02090000
H        3.96870000      -1.86080000       2.13340000
H        2.35960000      -2.41360000       2.64630000
