17
Properties=species:S:1:pos:R:3 gdb_42359=T pbc="F F F"
O       -0.46400000       0.66410000       1.99090000
C       -0.10870000       1.24480000       0.99470000
C        1.38190000       1.59190000       0.79630000
C        1.84070000       1.58920000      -0.58470000
C        2.20730000       1.57950000      -1.72950000
C       -1.06220000       1.67570000      -0.09640000
C       -1.25470000       0.63950000      -1.24540000
O       -2.64970000       0.49760000      -0.93920000
C       -2.56080000       1.43350000       0.15750000
H        1.52310000       2.59240000       1.23160000
H        1.96170000       0.90090000       1.41550000
H        2.54310000       1.56920000      -2.73720000
H       -0.79430000       2.66920000      -0.46160000
H       -1.07900000       1.03530000      -2.25170000
H       -0.70420000      -0.30140000      -1.12860000
H       -2.77690000       0.96280000       1.12160000
H       -3.21140000       2.30260000       0.00830000
