18
Properties=species:S:1:pos:R:3 gdb_35363=T pbc="F F F"
C       -0.08830000      -1.24340000      -0.16310000
C       -0.03760000      -0.04600000      -0.07020000
C        0.00330000       1.40320000       0.06680000
C       -0.63760000       1.95120000       1.39180000
C        0.25480000       3.15080000       1.68520000
C        1.74580000       2.90590000       1.91250000
C        2.12570000       1.57110000       1.28900000
N        1.38630000       1.95340000       0.02440000
C        1.23260000       3.33820000       0.56010000
H       -0.12780000      -2.30030000      -0.25790000
H       -0.52480000       1.85350000      -0.78290000
H       -1.68050000       2.24320000       1.24070000
H       -0.61730000       1.19810000       2.18430000
H       -0.15460000       4.02810000       2.17320000
H        2.31440000       3.47460000       2.63840000
H        3.19470000       1.48330000       1.07830000
H        1.77830000       0.64790000       1.76440000
H        1.39080000       4.21930000      -0.04810000
