18
Properties=species:S:1:pos:R:3 gdb_91589=T pbc="F F F"
O        0.00880000       1.41620000      -0.01290000
C       -0.01610000       0.02100000       0.05050000
C        0.24970000      -0.60580000       1.45520000
C       -1.10460000      -1.32580000       1.36310000
C       -2.19440000      -0.28800000       1.23740000
C       -1.38820000      -0.66220000       0.02320000
N       -1.96620000      -1.16260000      -1.18310000
C       -2.05330000      -0.38370000      -2.28830000
O       -1.63830000       0.75990000      -2.36870000
H       -0.46450000       1.63720000      -0.83050000
H        0.63780000      -0.43840000      -0.70530000
H        1.11760000      -1.26730000       1.46580000
H        0.33370000       0.11810000       2.26980000
H       -1.30990000      -2.34210000       1.67860000
H       -3.20890000      -0.67410000       1.23670000
H       -2.07490000       0.69280000       1.68950000
H       -2.33410000      -2.10060000      -1.22010000
H       -2.53730000      -0.90230000      -3.13660000
