20
Properties=species:S:1:pos:R:3 gdb_88854=T pbc="F F F"
C        2.99350000      -0.64070000       0.35420000
N        1.60250000      -1.07200000       0.37600000
C        1.21890000      -2.12010000       1.30860000
C        0.74360000      -0.71700000       1.50190000
C        1.22550000       0.09740000       2.68750000
O        1.27290000       1.48790000       2.33780000
C        0.46800000       2.25680000       3.22780000
C       -0.14770000       1.25520000       4.16350000
C        0.28880000       0.03740000       3.86700000
H        3.53710000      -0.79420000       1.29940000
H        3.51820000      -1.20230000      -0.42540000
H        3.03470000       0.42330000       0.10500000
H        0.54940000      -2.88850000       0.93040000
H        1.97710000      -2.48340000       2.00410000
H       -0.27300000      -0.46270000       1.20410000
H        2.23690000      -0.23150000       2.97300000
H        1.09180000       2.99400000       3.75890000
H       -0.28430000       2.82340000       2.65750000
H       -0.83210000       1.52750000       4.95690000
H        0.03360000      -0.88980000       4.36340000
