15
Properties=species:S:1:pos:R:3 gdb_34183=T pbc="F F F"
N        0.10630000      -1.07280000       0.00060000
C        0.05330000       0.08320000      -0.00190000
C       -0.03170000       1.50940000      -0.02030000
C       -1.08690000       2.25930000      -0.82970000
N       -0.75870000       3.65010000      -0.52240000
C       -0.23330000       3.74400000       0.84760000
C        0.69150000       3.78410000      -0.32100000
C        1.22760000       2.37000000       0.04520000
C        0.29370000       2.32960000       1.22560000
H       -0.99760000       2.07680000      -1.90390000
H       -2.10500000       2.02890000      -0.50470000
H       -0.59660000       4.50930000       1.52020000
H        1.23640000       4.58880000      -0.79590000
H        2.22860000       1.98140000      -0.06770000
H        0.42760000       1.90350000       2.20860000
