21
Properties=species:S:1:pos:R:3 gdb_72694=T pbc="F F F"
C       -0.08590000       1.51650000       0.10930000
C        0.03320000      -0.00390000       0.13910000
C       -1.35050000      -0.69990000       0.27790000
C       -1.07330000      -1.38350000       1.65650000
C        0.23140000      -2.11850000       1.28290000
C        0.79310000      -0.67310000       1.28240000
C        2.03510000      -0.43780000       0.40780000
O        1.14750000      -0.37550000      -0.75710000
C       -0.13290000      -0.41250000       2.49970000
H        0.86880000       2.00920000       0.31400000
H       -0.40900000       1.81880000      -0.89280000
H       -0.82670000       1.88900000       0.82250000
H       -2.17290000       0.02020000       0.27960000
H       -1.55660000      -1.45170000      -0.48850000
H       -1.90800000      -1.89060000       2.14170000
H        0.65340000      -2.70770000       2.10160000
H        0.25770000      -2.68170000       0.34740000
H        2.57270000       0.50700000       0.55060000
H        2.74900000      -1.26310000       0.33410000
H       -0.45280000       0.61350000       2.69340000
H        0.16890000      -0.89450000       3.43240000
