12
Properties=species:S:1:pos:R:3 gdb_20532=T pbc="F F F"
C       -0.02050000       1.47600000      -0.04750000
C       -0.02780000      -0.02130000       0.08950000
O       -0.05040000      -0.64700000       1.10580000
N       -0.00270000      -0.72760000      -1.17820000
N       -0.00380000      -2.05870000      -1.28570000
C        0.02330000      -2.21260000      -2.59300000
N        0.04080000      -1.02600000      -3.26990000
N        0.02430000      -0.09780000      -2.36610000
H        0.86890000       1.80870000      -0.58890000
H       -0.88610000       1.81380000      -0.62320000
H       -0.03890000       1.90510000       0.95350000
H        0.03100000      -3.17490000      -3.07850000
