22
Properties=species:S:1:pos:R:3 gdb_108582=T pbc="F F F"
C        0.59850000       1.47080000       0.45180000
C        0.01640000       0.12450000       0.00060000
C        0.61700000      -0.37160000      -1.29610000
C        0.30650000       0.37600000      -2.58820000
O        0.55670000      -0.52310000      -3.66460000
C        0.47390000      -1.86470000      -3.19020000
C        0.73870000      -1.80790000      -1.69960000
N        1.89660000      -1.07130000      -1.21100000
C        3.03910000      -0.75910000      -2.06470000
H        1.68380000       1.39790000       0.57470000
H        0.39430000       2.26480000      -0.27470000
H        0.17100000       1.78260000       1.40940000
H        0.20230000      -0.62890000       0.77250000
H       -1.07250000       0.20780000      -0.11290000
H       -0.74660000       0.70120000      -2.57580000
H        0.93090000       1.26150000      -2.75410000
H       -0.52440000      -2.29610000      -3.36990000
H        1.20410000      -2.45630000      -3.75490000
H        0.39050000      -2.63230000      -1.08130000
H        2.78950000      -0.47990000      -3.09550000
H        3.59940000       0.06140000      -1.60510000
H        3.69890000      -1.63250000      -2.08950000
