19
Properties=species:S:1:pos:R:3 gdb_7358=T pbc="F F F"
C        0.03750000       1.39390000       0.03720000
O        0.04750000      -0.01290000       0.05640000
C        0.63560000      -0.55860000      -1.08570000
C        0.59590000      -2.09100000      -0.96760000
O        0.10990000      -2.63170000       0.00490000
N        1.13840000      -2.79600000      -2.01600000
C        1.12170000      -4.24790000      -1.96690000
C        1.72220000      -2.22050000      -3.21010000
H        1.05600000       1.81250000      -0.00950000
H       -0.53360000       1.79010000      -0.81820000
H       -0.43820000       1.72500000       0.96310000
H        0.10120000      -0.23870000      -1.99810000
H        1.68090000      -0.21780000      -1.19450000
H        0.54790000      -4.65790000      -2.80810000
H        2.14220000      -4.64810000      -2.02240000
H        0.66070000      -4.55250000      -1.02900000
H        1.72920000      -1.13300000      -3.17300000
H        2.75940000      -2.55960000      -3.33490000
H        1.16340000      -2.52560000      -4.10560000
