21
Properties=species:S:1:pos:R:3 gdb_10069=T pbc="F F F"
C        0.29440000       1.06700000      -0.40990000
C        0.37020000      -0.42210000      -0.06040000
C        0.76790000      -0.71290000       1.39920000
C       -0.17950000      -0.09960000       2.45220000
C       -1.64630000      -0.54080000       2.37340000
C        0.93260000      -2.24450000       1.57810000
C        1.43960000      -2.62330000       2.89510000
N        1.84390000      -2.90530000       3.94070000
H        1.23690000       1.57660000      -0.18020000
H        0.09500000       1.20370000      -1.47700000
H       -0.50160000       1.57720000       0.14050000
H       -0.59120000      -0.90210000      -0.28410000
H        1.10400000      -0.90440000      -0.71900000
H        1.75790000      -0.26810000       1.56660000
H        0.21460000      -0.33790000       3.44680000
H       -0.12800000       0.99120000       2.36600000
H       -2.22970000      -0.05440000       3.16070000
H       -2.10600000      -0.27660000       1.41570000
H       -1.76110000      -1.62100000       2.51150000
H       -0.02340000      -2.75530000       1.41500000
H        1.62420000      -2.63280000       0.82170000
