21
Properties=species:S:1:pos:R:3 gdb_114036=T pbc="F F F"
C       -0.18910000       1.62430000       0.22650000
C        0.01860000       0.12780000       0.12990000
C        1.23690000      -0.62200000      -0.40820000
C        2.55450000      -0.03360000       0.07960000
C        3.13790000       1.27310000      -0.42740000
O        4.18740000       1.70300000       0.42360000
O        2.04160000       0.06870000       1.44400000
C        0.86230000      -0.67580000       1.06820000
C        0.42920000      -1.75910000       2.00140000
H       -0.23180000       2.09640000      -0.76070000
H       -1.13400000       1.83900000       0.73740000
H        0.61090000       2.09290000       0.80230000
H       -0.87990000      -0.42100000      -0.15100000
H        1.14820000      -1.38370000      -1.17210000
H        3.34780000      -0.79360000       0.07100000
H        3.57850000       1.11070000      -1.41780000
H        2.36170000       2.04170000      -0.53010000
H        3.81920000       1.72940000       1.31470000
H        0.11670000      -1.33440000       2.96240000
H       -0.41990000      -2.30770000       1.58370000
H        1.24380000      -2.46450000       2.19350000
