22
Properties=species:S:1:pos:R:3 gdb_104583=T pbc="F F F"
C        0.71740000       0.29580000       1.29850000
C        0.00630000      -0.02680000      -0.02170000
C       -1.38520000      -0.62610000       0.15190000
C       -2.37770000       0.21710000       0.94670000
C       -2.53930000       1.65010000       0.43390000
N       -2.95700000       1.75370000      -0.86610000
O       -2.34270000       2.62410000       1.13400000
C       -1.92260000      -1.47540000      -0.98360000
C       -1.48370000      -2.12310000       0.30930000
H        1.73940000       0.63930000       1.11190000
H        0.19840000       1.08800000       1.84560000
H        0.77230000      -0.58690000       1.94480000
H       -0.06580000       0.88730000      -0.62550000
H        0.61510000      -0.72840000      -0.60470000
H       -3.35930000      -0.27180000       0.93750000
H       -2.06810000       0.30410000       1.99060000
H       -2.91770000       0.95840000      -1.48100000
H       -2.96020000       2.67330000      -1.27770000
H       -2.98760000      -1.45560000      -1.19660000
H       -1.29880000      -1.61330000      -1.86090000
H       -0.56290000      -2.69700000       0.30220000
H       -2.25120000      -2.52590000       0.96150000
