23
Properties=species:S:1:pos:R:3 gdb_101387=T pbc="F F F"
C        0.01510000       1.58530000      -0.06770000
C        0.00060000       0.05750000       0.02620000
C       -1.41550000      -0.53390000       0.02010000
O       -2.13460000      -0.13200000      -1.14800000
C       -1.43370000      -2.05790000       0.17620000
C       -0.84910000      -2.58040000       1.52070000
C       -1.73280000      -3.75810000       1.85590000
C       -2.81490000      -3.80870000       1.08220000
C       -2.85800000      -2.67650000       0.08590000
H        1.03790000       1.97040000      -0.12130000
H       -0.52920000       1.92130000      -0.95390000
H       -0.46650000       2.03670000       0.80680000
H        0.56000000      -0.37520000      -0.81700000
H        0.52270000      -0.26720000       0.93400000
H       -1.98770000      -0.09360000       0.84910000
H       -1.67740000      -0.50520000      -1.91050000
H       -0.82910000      -2.48380000      -0.63760000
H        0.21040000      -2.84830000       1.44000000
H       -0.90950000      -1.81590000       2.31090000
H       -1.50560000      -4.44360000       2.66520000
H       -3.60730000      -4.54510000       1.16360000
H       -3.62970000      -1.94180000       0.35530000
H       -3.10470000      -3.00650000      -0.92890000
