19
Properties=species:S:1:pos:R:3 gdb_67680=T pbc="F F F"
C       -0.06710000       1.63690000      -0.10990000
C        0.01390000       0.13470000      -0.04340000
C        0.69690000      -0.82870000      -0.98260000
C        1.77120000      -1.57870000      -0.19490000
C        1.21260000      -1.48870000       1.21390000
C        0.17850000      -0.63680000       1.26930000
C       -1.20870000      -1.12500000       1.59730000
O       -1.53500000      -1.67170000       0.28180000
C       -0.84910000      -0.87770000      -0.68670000
H        0.87620000       2.10180000       0.19790000
H       -0.28780000       1.96900000      -1.12950000
H       -0.85770000       2.02500000       0.54280000
H        0.91770000      -0.52670000      -2.00450000
H        1.86080000      -2.63790000      -0.47060000
H        2.76480000      -1.13290000      -0.34840000
H        1.39760000      -2.26590000       1.94920000
H       -1.24840000      -1.93950000       2.32240000
H       -1.93610000      -0.34780000       1.86290000
H       -1.48000000      -0.66660000      -1.54520000
