22
Properties=species:S:1:pos:R:3 gdb_88830=T pbc="F F F"
C        0.23000000       1.56870000      -0.36390000
C       -0.03560000       0.13570000       0.02990000
N        1.10080000      -0.79940000       0.01260000
C        0.42940000      -0.50430000       1.29420000
C        1.25920000       0.19720000       2.33130000
O        0.44130000       0.75800000       3.38840000
C        1.21750000       0.10010000       4.40960000
C        2.07470000      -0.64300000       3.36090000
C        1.95450000      -2.16100000       3.32830000
H        1.21800000       1.89780000      -0.03630000
H        0.19010000       1.67610000      -1.45320000
H       -0.52140000       2.23590000       0.07120000
H       -0.98490000      -0.25200000      -0.33990000
H        0.81700000      -1.71150000      -0.33330000
H       -0.23430000      -1.26430000       1.70250000
H        1.87040000       0.97110000       1.85240000
H        1.75730000       0.81740000       5.04130000
H        0.59320000      -0.53520000       5.05190000
H        3.12960000      -0.35850000       3.38130000
H        0.91010000      -2.48750000       3.36530000
H        2.40730000      -2.57480000       2.42170000
H        2.46660000      -2.60300000       4.18980000
