17
Properties=species:S:1:pos:R:3 gdb_123571=T pbc="F F F"
C       -0.03490000       1.45530000       0.09990000
C        1.29030000       0.74680000       0.01450000
C        2.06980000       0.47680000       1.32060000
C        1.12850000      -0.41680000       2.08190000
C        0.95950000      -1.09800000       3.26340000
N       -0.21970000      -1.77420000       3.13030000
N       -0.83850000      -1.57250000       1.93910000
C       -0.01100000      -0.74740000       1.31630000
C       -0.01320000      -0.05940000       0.00580000
H       -0.33680000       1.89850000       1.04370000
H       -0.36070000       2.00290000      -0.77840000
H        1.86230000       0.86420000      -0.89850000
H        3.02290000      -0.02030000       1.10200000
H        2.31360000       1.40840000       1.84510000
H        1.55040000      -1.18120000       4.16220000
H       -0.64570000      -2.39460000       3.79690000
H       -0.39130000      -0.54590000      -0.88480000
