17
Properties=species:S:1:pos:R:3 gdb_8341=T pbc="F F F"
C       -0.03570000      -1.21000000       0.03050000
C       -0.03900000      -0.00810000       0.01340000
C        0.00490000       1.44930000      -0.00730000
C        1.42750000       1.99340000       0.00120000
C        2.56750000       1.77690000      -1.02000000
N        3.23500000       2.70440000       0.01180000
C        1.89920000       3.46660000      -0.01480000
C        2.54340000       1.80730000       1.05460000
H       -0.05020000      -2.27150000       0.04600000
H       -0.51800000       1.82450000      -0.89720000
H       -0.53840000       1.85010000       0.85890000
H        3.02360000       0.78560000      -1.07740000
H        2.46550000       2.22960000      -2.01060000
H        1.74650000       4.04790000      -0.92890000
H        1.72550000       4.07430000       0.87810000
H        2.41860000       2.28870000       2.02890000
H        2.99770000       0.81820000       1.15150000
