14
Properties=species:S:1:pos:R:3 gdb_45722=T pbc="F F F"
O        0.01550000      -0.07680000       0.04960000
C       -0.04230000       1.12790000       0.06820000
C       -1.32420000       1.94230000       0.08090000
C       -1.11650000       3.29910000       0.78940000
N        0.06340000       4.03330000       0.32310000
C        1.06010000       3.31200000       0.00770000
N        1.09830000       1.92250000       0.01300000
C       -2.31730000       4.13540000       0.65070000
N       -3.28650000       4.75380000       0.54310000
H       -1.61190000       2.11580000      -0.96320000
H       -2.11480000       1.35370000       0.54800000
H       -0.98190000       3.11500000       1.86680000
H        1.99300000       3.78710000      -0.29080000
H        1.97210000       1.43840000      -0.13980000
