14
Properties=species:S:1:pos:R:3 gdb_54895=T pbc="F F F"
N       -0.02500000       1.34240000       0.27090000
C        0.10700000       0.01930000      -0.09480000
O        1.12840000      -0.48210000      -0.48370000
N       -1.12170000      -0.69390000      -0.02250000
C       -2.41590000      -0.16570000      -0.16130000
N       -3.37900000      -0.99700000      -0.13320000
C       -2.77310000      -2.31450000       0.05220000
C       -1.25620000      -2.10780000       0.11440000
O       -0.37870000      -2.90520000       0.27270000
H        0.85600000       1.83240000       0.31760000
H       -0.69180000       1.58950000       0.98560000
H       -2.53420000       0.90130000      -0.31400000
H       -3.12950000      -2.78700000       0.97380000
H       -3.03590000      -2.98530000      -0.77290000
