15
Properties=species:S:1:pos:R:3 gdb_33669=T pbc="F F F"
C       -0.02920000      -1.21170000       0.02170000
C       -0.02530000      -0.00780000       0.00340000
C       -0.01320000       1.40530000      -0.01670000
C       -0.65700000       2.51390000       0.81840000
O        0.55070000       3.24670000       0.97140000
C        1.18860000       2.39610000      -0.03130000
C        1.06310000       3.11570000      -1.36230000
O       -0.35560000       3.25620000      -1.54630000
C       -0.98580000       2.38100000      -0.65170000
H       -0.03530000      -2.27320000       0.04010000
H       -1.35310000       2.47710000       1.64860000
H        2.17690000       2.05250000       0.27140000
H        1.51200000       4.11220000      -1.33170000
H        1.50320000       2.53610000      -2.18730000
H       -1.96990000       2.05350000      -0.96320000
