18
Properties=species:S:1:pos:R:3 gdb_105987=T pbc="F F F"
C        0.01490000       1.46580000       0.24360000
C       -0.05820000      -0.01360000      -0.15660000
C       -1.43410000      -0.57570000      -0.05190000
C       -2.33090000      -0.94820000       1.12810000
C       -3.53080000      -0.47210000       0.28050000
C       -3.23170000      -1.45680000      -0.79370000
N       -2.63880000      -0.07200000      -0.86250000
C       -1.99370000      -1.96360000       0.01480000
O       -1.31210000      -3.14560000       0.06440000
H        1.02810000       1.85680000       0.11240000
H       -0.66450000       2.06340000      -0.37130000
H       -0.27140000       1.60400000       1.29110000
H        0.29270000      -0.13760000      -1.18960000
H        0.60870000      -0.61740000       0.47130000
H       -2.12160000      -0.99220000       2.18790000
H       -4.44010000       0.06690000       0.52200000
H       -3.83480000      -1.86410000      -1.59760000
H       -1.80350000      -3.76790000       0.61370000
