17
Properties=species:S:1:pos:R:3 gdb_113627=T pbc="F F F"
C       -0.31630000       1.56750000      -0.92050000
C        0.00750000       0.32980000      -0.07260000
C       -1.25000000      -0.35940000       0.39290000
O       -1.97660000      -1.12280000      -0.56280000
C       -1.41120000      -1.83400000       0.52800000
C       -0.27700000      -2.77490000       0.22640000
O        0.35540000      -2.76200000      -0.80690000
C        0.02210000      -3.70170000       1.30580000
C        0.25580000      -4.46430000       2.20750000
H        0.60160000       2.06290000      -1.24880000
H       -0.88700000       1.28470000      -1.80970000
H       -0.90810000       2.29720000      -0.35680000
H        0.61170000      -0.37330000      -0.65020000
H        0.58800000       0.62120000       0.81200000
H       -1.88920000       0.23490000       1.05140000
H       -2.12100000      -2.20370000       1.26830000
H        0.47830000      -5.14350000       2.99470000
