23
Properties=species:S:1:pos:R:3 gdb_118785=T pbc="F F F"
C       -0.17790000       1.31500000       0.08810000
O       -0.21810000      -0.07370000      -0.14040000
C        0.76530000      -0.51960000      -1.06340000
C        0.70480000      -2.02790000      -1.05640000
O        0.87850000      -2.53450000       0.24050000
C       -0.24390000      -2.76310000      -1.98160000
C        1.26280000      -2.87760000      -2.17080000
C        1.89200000      -2.22780000      -3.39140000
C        1.92210000      -4.18960000      -1.78180000
H        0.79700000       1.63490000       0.48800000
H       -0.37400000       1.88460000      -0.83360000
H       -0.95560000       1.54990000       0.81890000
H        0.56980000      -0.10150000      -2.06050000
H        1.76240000      -0.17870000      -0.73810000
H        0.26920000      -2.02930000       0.79390000
H       -0.76350000      -3.61710000      -1.56090000
H       -0.81580000      -2.19000000      -2.70500000
H        1.36940000      -1.32080000      -3.70590000
H        2.94090000      -1.96670000      -3.20740000
H        1.87120000      -2.92400000      -4.23810000
H        1.82120000      -4.91900000      -2.59380000
H        2.99260000      -4.04790000      -1.59300000
H        1.47850000      -4.60810000      -0.87790000
