21
Properties=species:S:1:pos:R:3 gdb_117821=T pbc="F F F"
C        0.02820000       1.59320000       0.31440000
C        0.11100000       0.10270000       0.03090000
O        0.75230000      -0.51090000       1.14570000
C        0.77700000      -1.94040000       1.17330000
C        1.32190000      -2.58880000      -0.09470000
C        1.64590000      -2.25630000       2.39590000
O        1.58110000      -3.65510000       2.61640000
C       -0.66110000      -2.39290000       1.48020000
O       -1.36020000      -3.03860000       0.74620000
H        1.02760000       2.01040000       0.46780000
H       -0.43950000       2.11290000      -0.52710000
H       -0.56400000       1.78290000       1.21400000
H       -0.89350000      -0.31800000      -0.12100000
H        0.68400000      -0.08080000      -0.88840000
H        2.25640000      -2.10260000      -0.39010000
H        1.52120000      -3.64390000       0.10400000
H        0.60590000      -2.53270000      -0.91640000
H        2.67060000      -1.90990000       2.19980000
H        1.25490000      -1.68700000       3.25210000
H        2.08300000      -3.86370000       3.40900000
H       -1.03790000      -2.00030000       2.45280000
