17
Properties=species:S:1:pos:R:3 gdb_18707=T pbc="F F F"
O        0.49680000       0.74760000      -0.97440000
C        0.02220000      -0.17870000       0.00250000
C        0.58030000       0.10700000       1.36950000
C       -0.10930000      -0.09680000       2.49000000
C       -1.52110000      -0.61990000       2.48820000
N       -2.26240000      -0.47720000       1.23040000
C       -2.28700000       0.85060000       0.62370000
C       -1.49860000      -0.25160000      -0.00140000
H        0.11940000       1.60690000      -0.75430000
H        0.41470000      -1.14360000      -0.34600000
H        1.60170000       0.47770000       1.38850000
H        0.34170000       0.10180000       3.45970000
H       -1.51710000      -1.68880000       2.74550000
H       -2.10760000      -0.12640000       3.27350000
H       -3.24050000       1.15230000       0.19920000
H       -1.73130000       1.64740000       1.11570000
H       -1.91640000      -0.74520000      -0.87610000
