22
Properties=species:S:1:pos:R:3 gdb_15188=T pbc="F F F"
C       -0.07770000       1.47910000       0.01260000
C       -0.06480000      -0.03190000       0.17500000
O       -1.36480000      -0.52320000      -0.07110000
C       -1.46600000      -1.92530000       0.04530000
C       -2.90690000      -2.33640000      -0.23840000
C       -3.10980000      -3.83380000      -0.15940000
C       -3.36330000      -4.50310000       1.17020000
C       -4.46880000      -4.40810000       0.14720000
H        0.91830000       1.89260000       0.19770000
H       -0.38520000       1.75250000      -1.00080000
H       -0.77970000       1.93430000       0.71700000
H        0.65510000      -0.48950000      -0.52560000
H        0.26180000      -0.30860000       1.19250000
H       -0.78060000      -2.42040000      -0.66570000
H       -1.16770000      -2.25320000       1.05590000
H       -3.56340000      -1.83120000       0.48060000
H       -3.18630000      -1.96370000      -1.23160000
H       -2.50890000      -4.40490000      -0.86370000
H       -2.91670000      -5.47310000       1.35930000
H       -3.43340000      -3.86930000       2.04860000
H       -5.27930000      -3.71280000       0.34050000
H       -4.77510000      -5.31290000      -0.36610000
