21
Properties=species:S:1:pos:R:3 gdb_93134=T pbc="F F F"
C       -0.18690000       1.55450000      -0.20580000
C       -0.02920000       0.04740000       0.04030000
C        0.53530000      -0.70320000      -1.18360000
C        1.93400000      -0.35780000      -1.64010000
C        2.94300000       0.24070000      -1.00220000
C        2.99280000       0.78790000       0.40670000
C        2.20390000      -0.00090000       1.43890000
O        1.19860000       0.69460000       2.19300000
C        0.78170000      -0.32250000       1.27860000
H        0.73330000       2.01760000      -0.56780000
H       -0.95630000       1.72210000      -0.96660000
H       -0.48720000       2.06860000       0.70970000
H       -1.03930000      -0.34910000       0.20790000
H        0.49140000      -1.78690000      -0.99150000
H       -0.14420000      -0.54380000      -2.03190000
H        2.13460000      -0.67020000      -2.66450000
H        3.86070000       0.38340000      -1.56980000
H        4.03980000       0.83640000       0.72590000
H        2.63510000       1.82510000       0.42450000
H        2.79960000      -0.68360000       2.04650000
H        0.43230000      -1.23140000       1.77360000
