20
Properties=species:S:1:pos:R:3 gdb_6209=T pbc="F F F"
C       -0.41110000       1.39360000       0.14670000
C       -0.02310000      -0.04500000       0.01680000
C       -0.15030000      -0.82530000      -1.05950000
C        0.39120000      -2.21260000      -0.83550000
C        0.59770000      -2.28170000       0.71070000
C       -0.55920000      -3.02940000       1.38030000
O        1.84310000      -2.87240000       1.07880000
C        0.63210000      -0.79720000       1.15310000
H        0.45800000       2.01830000       0.39060000
H       -0.85560000       1.77690000      -0.77610000
H       -1.13340000       1.53910000       0.96030000
H       -0.56450000      -0.50170000      -2.00940000
H       -0.27600000      -3.00340000      -1.20220000
H        1.35860000      -2.35380000      -1.33640000
H       -0.60650000      -4.06850000       1.03110000
H       -0.43190000      -3.03550000       2.46700000
H       -1.51720000      -2.55610000       1.14160000
H        1.79600000      -3.81230000       0.87370000
H        1.67560000      -0.48300000       1.28710000
H        0.13190000      -0.63960000       2.11690000
