18
Properties=species:S:1:pos:R:3 gdb_15587=T pbc="F F F"
C       -0.39910000       1.43540000       0.36470000
N        0.10510000       0.11100000       0.01160000
C       -0.94970000      -0.85180000      -0.33440000
C       -1.45160000      -1.44900000       1.00140000
C       -0.20650000      -1.39650000       1.92100000
C        0.83160000      -0.53210000       1.11520000
C        1.91530000      -1.37400000       0.57930000
N        2.76210000      -2.04950000       0.17630000
H        0.44210000       2.09590000       0.59500000
H       -0.92410000       1.85660000      -0.49680000
H       -1.09100000       1.45080000       1.22560000
H       -1.73130000      -0.36450000      -0.92120000
H       -0.50870000      -1.63980000      -0.95610000
H       -2.26100000      -0.84110000       1.41530000
H       -1.83790000      -2.46350000       0.87980000
H       -0.42670000      -0.92030000       2.87850000
H        0.19600000      -2.38810000       2.13480000
H        1.29690000       0.23060000       1.74560000
