19
Properties=species:S:1:pos:R:3 gdb_114291=T pbc="F F F"
C       -0.10750000       1.59820000      -0.01690000
C        0.02170000       0.10620000       0.30910000
C       -1.29950000      -0.62080000       0.15470000
O       -1.86150000      -0.59420000      -1.20030000
C       -2.13490000      -1.98500000      -1.12370000
C       -0.87100000      -2.80920000      -1.07090000
C        0.34200000      -2.48420000      -1.76500000
C        1.35370000      -2.27600000      -2.38190000
C       -1.42400000      -2.14560000       0.19520000
H        0.85220000       2.11000000       0.09870000
H       -0.44540000       1.73640000      -1.04790000
H       -0.83150000       2.09020000       0.64250000
H        0.77310000      -0.35890000      -0.33250000
H        0.35280000      -0.02870000       1.34750000
H       -2.04870000      -0.18300000       0.83020000
H       -3.08260000      -2.34480000      -1.50860000
H       -1.09270000      -3.87550000      -1.05440000
H        2.24490000      -2.07280000      -2.92190000
H       -1.67130000      -2.73440000       1.06830000
