21
Properties=species:S:1:pos:R:3 gdb_62067=T pbc="F F F"
C       -0.37530000       1.67490000       0.44430000
C        0.07280000       0.26620000       0.01240000
C        0.86270000      -0.46420000       1.09300000
O        2.03420000       0.28950000       1.36030000
C        2.83140000      -0.27050000       2.35620000
C        3.81620000      -1.35240000       1.99120000
C        4.28720000       0.05540000       2.30430000
C       -1.12240000      -0.54110000      -0.44510000
O       -1.43460000      -1.62380000      -0.01750000
H        0.49800000       2.27200000       0.71130000
H       -0.91520000       2.18530000      -0.35950000
H       -1.03490000       1.62350000       1.31740000
H        0.71990000       0.38110000      -0.87150000
H        0.25130000      -0.56620000       2.00340000
H        1.11880000      -1.47970000       0.76250000
H        2.34780000      -0.33220000       3.33220000
H        4.01290000      -2.14450000       2.70520000
H        3.84430000      -1.65800000       0.95120000
H        4.61460000       0.66240000       1.46810000
H        4.81030000       0.24110000       3.23540000
H       -1.73050000      -0.04240000      -1.23610000
