19
Properties=species:S:1:pos:R:3 gdb_120003=T pbc="F F F"
C        0.14090000       1.49980000      -0.30230000
C       -0.06670000       0.05330000       0.08660000
O        0.64570000      -0.86280000      -0.82480000
C        1.38250000      -1.39420000       0.19930000
O        2.24070000      -2.21680000       0.12970000
C        0.71350000      -0.54930000       1.28610000
C        1.62980000       0.31120000       2.15430000
C        2.38940000      -0.53290000       3.18670000
O        3.21910000       0.25800000       4.02010000
H        1.20260000       1.75510000      -0.34730000
H       -0.29820000       1.69060000      -1.28560000
H       -0.34680000       2.15990000       0.42220000
H       -1.12900000      -0.20640000       0.08350000
H        0.07180000      -1.17090000       1.91990000
H        2.35530000       0.84570000       1.52880000
H        1.04270000       1.07150000       2.68200000
H        1.67470000      -1.02470000       3.85670000
H        2.95490000      -1.32490000       2.67650000
H        3.97340000       0.54800000       3.49780000
