16
Properties=species:S:1:pos:R:3 gdb_33119=T pbc="F F F"
O        0.09760000       1.42970000       0.11270000
C        0.05700000       0.01420000       0.16960000
C       -1.36280000      -0.53910000      -0.04680000
C       -1.40520000      -2.02930000      -0.00460000
C       -1.98480000      -2.85250000       0.89640000
O       -1.72380000      -4.15990000       0.50840000
C       -0.99130000      -4.01270000      -0.61500000
O       -0.58540000      -5.12260000      -1.22720000
N       -0.75980000      -2.80070000      -0.98350000
H       -0.07820000       1.69240000      -0.79640000
H        0.74250000      -0.44610000      -0.55520000
H        0.40720000      -0.25740000       1.17080000
H       -2.03030000      -0.11930000       0.71210000
H       -1.72580000      -0.19820000      -1.02570000
H       -2.57290000      -2.72790000       1.78800000
H       -0.90760000      -5.88330000      -0.72870000
