19
Properties=species:S:1:pos:R:3 gdb_109085=T pbc="F F F"
C       -0.00640000       1.45990000       0.30930000
O       -0.02610000       0.08710000      -0.09100000
C       -1.23540000      -0.47620000      -0.12290000
N       -2.34750000       0.09590000       0.14990000
C       -3.36460000      -0.93700000      -0.00930000
C       -4.04740000      -1.03530000      -1.41010000
C       -3.46440000      -2.46980000      -1.59300000
C       -2.61440000      -2.29130000      -0.30900000
N       -1.25060000      -1.80640000      -0.52370000
H        1.04240000       1.75840000       0.29190000
H       -0.59210000       2.06970000      -0.38340000
H       -0.42350000       1.57450000       1.31330000
H       -4.06740000      -0.93340000       0.82780000
H       -5.13740000      -0.95990000      -1.41750000
H       -3.64180000      -0.29850000      -2.10640000
H       -4.21710000      -3.25590000      -1.48430000
H       -2.89360000      -2.65350000      -2.50590000
H       -2.64740000      -3.10570000       0.42120000
H       -0.46490000      -2.37870000      -0.25260000
