15
Properties=species:S:1:pos:R:3 gdb_131268=T pbc="F F F"
O        0.50950000       1.34390000       0.15950000
C        0.23690000       0.02140000       0.07560000
C        0.00770000      -0.68020000      -1.09160000
N       -0.24810000      -1.96100000      -0.71140000
N       -0.19000000      -2.14480000       0.61240000
C        0.09570000      -0.93870000       1.11340000
C        0.16940000      -0.78640000       2.60390000
C        1.22490000       0.12630000       3.17060000
O        1.79940000       1.00980000       2.57470000
H        1.03950000       1.46970000       0.96680000
H        0.01400000      -0.36560000      -2.12170000
H       -0.45070000      -2.74730000      -1.30360000
H       -0.77790000      -0.39250000       3.01630000
H        0.27870000      -1.77580000       3.06200000
H        1.43570000      -0.03340000       4.24910000
