21
Properties=species:S:1:pos:R:3 gdb_95275=T pbc="F F F"
O        0.04200000       1.41980000      -0.07970000
C        0.04750000       0.01260000       0.09570000
C        0.53910000      -0.48090000       1.46320000
C        0.00500000      -1.92080000       1.51090000
C       -1.40320000      -1.85470000       0.85620000
C       -2.57870000      -1.69580000       1.86620000
C       -3.05370000      -0.27940000       1.66840000
C       -2.42310000       0.33890000       0.67300000
C       -1.39500000      -0.53800000       0.00020000
H        0.94740000       1.73340000       0.00610000
H        0.65760000      -0.46250000      -0.69100000
H        1.62630000      -0.41780000       1.57880000
H        0.07860000       0.13520000       2.24380000
H        0.65860000      -2.57350000       0.92020000
H       -0.02300000      -2.33480000       2.52290000
H       -1.56620000      -2.73820000       0.23530000
H       -3.38380000      -2.41660000       1.66940000
H       -2.25830000      -1.88320000       2.89990000
H       -3.83850000       0.15900000       2.27650000
H       -2.59780000       1.35790000       0.35090000
H       -1.66090000      -0.70610000      -1.04990000
