20
Properties=species:S:1:pos:R:3 gdb_47929=T pbc="F F F"
O        0.05760000      -0.05520000       0.28170000
C        0.01000000       1.14510000       0.12360000
C       -1.32150000       1.87280000      -0.02270000
C       -1.35390000       3.07200000      -0.97890000
O       -1.27270000       2.76130000      -2.35340000
C       -0.16120000       2.00460000      -2.80930000
C        1.24510000       2.51840000      -2.40870000
N        1.93140000       1.87150000      -1.29060000
C        1.31500000       1.95500000       0.03560000
H       -2.09010000       1.13710000      -0.27730000
H       -1.56390000       2.26020000       0.97870000
H       -2.31410000       3.58480000      -0.86730000
H       -0.57680000       3.79640000      -0.69280000
H       -0.25610000       0.94860000      -2.50920000
H       -0.25770000       2.03540000      -3.89930000
H        1.90090000       2.39540000      -3.27790000
H        1.19280000       3.59760000      -2.21950000
H        2.09120000       0.89230000      -1.50750000
H        1.17070000       3.00920000       0.29090000
H        2.01080000       1.52100000       0.76000000
