21
Properties=species:S:1:pos:R:3 gdb_105478=T pbc="F F F"
C        0.12620000       1.51280000       0.07410000
O        0.14190000       0.10510000       0.20390000
C       -1.11050000      -0.52020000       0.01360000
C       -1.66730000      -0.55990000      -1.45530000
C       -1.93740000      -2.07590000      -1.26850000
C       -0.97060000      -2.06840000      -0.05630000
C       -2.11310000      -0.07880000       0.98480000
C       -2.94310000       0.27940000       1.78200000
C       -3.94300000       0.70700000       2.75020000
H        1.15270000       1.85400000       0.22660000
H       -0.20620000       1.82660000      -0.92660000
H       -0.52640000       1.98320000       0.82130000
H       -2.51010000       0.08950000      -1.69700000
H       -0.84660000      -0.37650000      -2.15440000
H       -2.96910000      -2.27020000      -0.96640000
H       -1.68690000      -2.73370000      -2.10250000
H        0.05470000      -2.31260000      -0.34450000
H       -1.24600000      -2.63190000       0.83590000
H       -4.61670000      -0.11650000       3.01200000
H       -3.47300000       1.05500000       3.67660000
H       -4.55660000       1.52650000       2.35990000
