17
Properties=species:S:1:pos:R:3 gdb_75112=T pbc="F F F"
C       -0.29340000       1.49660000       0.07290000
C        0.05500000       0.03140000      -0.00070000
C        0.04280000      -0.61050000      -1.17770000
N        0.37870000      -1.96090000      -1.40470000
C       -0.03320000      -3.07800000      -0.69320000
O       -0.12040000      -4.16910000      -1.21520000
N       -0.33360000      -2.89720000       0.65480000
C        0.21030000      -1.93460000       1.52060000
C        0.38940000      -0.63580000       1.25320000
H        0.51190000       2.06330000       0.55710000
H       -0.45590000       1.92380000      -0.92020000
H       -1.19970000       1.66700000       0.66680000
H       -0.21790000      -0.07690000      -2.08700000
H        0.52170000      -2.21460000      -2.37050000
H       -0.54860000      -3.79050000       1.07150000
H        0.47350000      -2.33230000       2.49600000
H        0.79590000      -0.02090000       2.05070000
