12
Properties=species:S:1:pos:R:3 gdb_2735=T pbc="F F F"
O       -0.00650000      -0.01240000      -0.02020000
C       -0.03540000       1.17420000       0.04390000
C       -1.12600000       2.22960000       0.25940000
C       -0.00930000       3.27320000       0.55620000
C        1.08260000       2.27660000       0.03440000
C        2.27540000       2.05630000       0.82430000
N        3.20960000       1.87570000       1.48120000
H       -1.68300000       2.42540000      -0.66270000
H       -1.84090000       2.00660000       1.05440000
H       -0.06700000       4.21610000       0.01420000
H        0.10510000       3.47520000       1.62140000
H        1.35830000       2.48830000      -1.00500000
