15
Properties=species:S:1:pos:R:3 gdb_46637=T pbc="F F F"
O       -0.04240000      -0.01690000       0.03300000
C        0.01800000       1.17110000       0.10000000
O       -1.08550000       1.94980000       0.36010000
C       -0.74070000       3.35080000       0.55070000
C        0.74470000       3.31140000       0.66930000
C        1.70950000       3.71810000       1.48160000
C        2.91940000       2.83570000       1.25960000
O        2.45900000       1.75710000       0.42810000
C        1.20960000       2.12150000      -0.10910000
H       -1.09810000       3.91390000      -0.31970000
H       -1.25730000       3.71040000       1.44330000
H        1.66460000       4.48580000       2.24340000
H        3.75300000       3.36010000       0.76600000
H        3.30080000       2.42150000       2.20170000
H        1.28750000       2.30390000      -1.19650000
