20
Properties=species:S:1:pos:R:3 gdb_35126=T pbc="F F F"
C       -0.17090000      -1.22560000      -0.16730000
C       -0.10140000      -0.02810000      -0.07350000
C       -0.00620000       1.41430000       0.05090000
C       -0.07570000       1.94290000       1.52570000
C        1.46960000       2.04240000       1.53350000
C        1.45700000       1.97450000      -0.01350000
N        2.02920000       3.24490000       2.11540000
C        2.39560000       3.16830000       3.52860000
C        3.44520000       3.18990000       2.47460000
H       -0.24010000      -2.28110000      -0.25780000
H       -0.70860000       1.89010000      -0.63870000
H       -0.52120000       2.94000000       1.56070000
H       -0.55430000       1.29680000       2.26270000
H        1.91470000       1.12670000       1.95790000
H        2.20510000       1.35370000      -0.50830000
H        1.46960000       2.98100000      -0.43850000
H        2.18640000       4.05570000       4.11860000
H        2.23180000       2.22570000       4.04850000
H        3.98370000       2.26180000       2.28950000
H        4.01600000       4.09340000       2.28150000
