14
Properties=species:S:1:pos:R:3 gdb_127913=T pbc="F F F"
C       -0.05010000       1.40080000       0.10250000
N        0.08480000      -0.04790000       0.06580000
C        0.58650000      -0.59210000      -0.94560000
N        0.78830000      -1.94960000      -1.15970000
C        1.33140000      -2.10500000      -2.40630000
C        1.67220000      -3.43000000      -2.98780000
O        2.14280000      -3.58710000      -4.08120000
N        1.51600000      -0.97410000      -3.01080000
O        1.06350000       0.00370000      -2.10760000
H        0.83930000       1.85890000       0.55370000
H       -0.19540000       1.85250000      -0.88640000
H       -0.90520000       1.65900000       0.73290000
H        0.51950000      -2.66090000      -0.50270000
H        1.44910000      -4.28210000      -2.30920000
