22
Properties=species:S:1:pos:R:3 gdb_87461=T pbc="F F F"
C       -0.15890000       1.43520000      -0.04190000
N        0.02720000      -0.00760000       0.04710000
C        1.40730000      -0.50110000      -0.18390000
C        0.78380000      -0.52840000       1.15100000
C        1.16840000       0.05590000       2.52320000
C       -0.20280000      -0.49200000       3.02810000
C        0.38430000      -1.64360000       2.14170000
C       -0.24010000      -2.97270000       1.82170000
C        1.75510000      -1.35330000       2.83790000
H        0.69110000       2.01530000       0.35370000
H       -0.30650000       1.71670000      -1.08950000
H       -1.05670000       1.72260000       0.51490000
H        1.48870000      -1.39480000      -0.79820000
H        2.17990000       0.24580000      -0.36750000
H        1.62050000       1.02140000       2.74840000
H       -0.27100000      -0.70040000       4.10020000
H       -1.10440000       0.00000000       2.65550000
H       -1.17920000      -2.83540000       1.27540000
H        0.42540000      -3.57960000       1.19770000
H       -0.45570000      -3.54070000       2.73290000
H        2.65710000      -1.64710000       2.29450000
H        1.81660000      -1.61610000       3.89760000
