13
Properties=species:S:1:pos:R:3 gdb_23886=T pbc="F F F"
O        0.32820000       0.75000000       0.81260000
C       -0.13440000       0.31440000      -0.44620000
C       -1.49150000      -0.41200000      -0.39000000
O       -2.09070000      -0.50940000      -1.66310000
C       -1.37300000      -1.81490000       0.21000000
F       -0.70660000      -1.80660000       1.38510000
F       -2.56000000      -2.37610000       0.42680000
F       -0.68680000      -2.61920000      -0.62700000
H        0.48730000      -0.02790000       1.35620000
H       -0.28360000       1.20820000      -1.05750000
H        0.60010000      -0.32460000      -0.96340000
H       -2.17340000       0.16230000       0.24380000
H       -1.54240000      -1.08890000      -2.20570000
