13
Properties=species:S:1:pos:R:3 gdb_74243=T pbc="F F F"
N       -0.03270000       1.38050000       0.14260000
C        0.01320000       0.01490000       0.02950000
N       -1.03270000      -0.79750000       0.01630000
H       -1.99540000      -0.50810000       0.04760000
C       -0.61210000      -2.15980000      -0.00480000
C       -1.53860000      -3.19830000      -0.02330000
N       -2.34990000      -4.03320000      -0.03910000
C        0.80540000      -2.17680000      -0.01450000
O        1.67350000      -3.02310000      -0.03350000
N        1.12160000      -0.73230000       0.00260000
H        0.75350000       1.87060000      -0.25990000
H       -0.91370000       1.80750000      -0.10660000
H        2.06790000      -0.39100000       0.04730000
