20
Properties=species:S:1:pos:R:3 gdb_81992=T pbc="F F F"
C       -0.24070000       1.59940000       0.08770000
C       -0.00550000       0.09460000       0.07400000
C        0.52360000      -0.57250000      -1.19320000
C        1.91490000      -0.19200000      -1.48980000
N        1.68420000      -1.24130000      -0.47610000
C        1.24260000      -0.54520000       0.81200000
C        2.28900000       0.36330000       1.46110000
C        0.82950000      -1.56580000       1.76790000
C        0.47610000      -2.38370000       2.57480000
H        0.62090000       2.16280000      -0.28130000
H       -1.09620000       1.85330000      -0.54760000
H       -0.46460000       1.95230000       1.10000000
H       -0.90720000      -0.41410000       0.42080000
H       -0.08780000      -1.12320000      -1.90100000
H        2.36130000      -0.59750000      -2.39280000
H        2.30370000       0.77990000      -1.20320000
H        2.58910000       1.18880000       0.81280000
H        1.89430000       0.78790000       2.38830000
H        3.17790000      -0.22450000       1.70760000
H        0.16980000      -3.11650000       3.27970000
