21
Properties=species:S:1:pos:R:3 gdb_64371=T pbc="F F F"
C       -0.28090000       1.58840000       0.10450000
C       -0.04360000       0.08340000       0.02320000
C       -1.32750000      -0.67680000      -0.32540000
O        0.92010000      -0.17650000      -1.02640000
C        1.97990000      -0.93180000      -0.48030000
O        1.50210000      -1.51790000       0.70680000
C        0.65560000      -0.52900000       1.24610000
C        1.14210000       0.23110000       2.45300000
C        0.04530000      -0.81670000       2.57030000
H        0.65770000       2.12140000       0.27380000
H       -0.71520000       1.94640000      -0.83300000
H       -0.97650000       1.83520000       0.91380000
H       -1.67170000      -0.38590000      -1.32200000
H       -1.14050000      -1.75360000      -0.32320000
H       -2.12450000      -0.45890000       0.39260000
H        2.27130000      -1.72790000      -1.17320000
H        2.84420000      -0.27700000      -0.27000000
H        2.12400000      -0.03510000       2.82760000
H        0.87060000       1.27330000       2.57450000
H       -0.96940000      -0.47940000       2.75420000
H        0.29780000      -1.76490000       3.03110000
