17
Properties=species:S:1:pos:R:3 gdb_22934=T pbc="F F F"
C       -0.05280000       1.51230000      -0.02840000
C        0.09470000       0.01520000      -0.01720000
N       -0.77460000      -0.82470000       0.85890000
C        0.70340000      -0.78700000       1.07860000
C        1.39180000      -1.94540000       0.43300000
C        1.22400000      -1.91620000      -0.89920000
C        0.46010000      -0.72120000      -1.27940000
N        0.13670000      -0.26450000      -2.42900000
O        0.57520000      -1.10250000      -3.46260000
H        0.83780000       1.98960000      -0.44830000
H       -0.90730000       1.81100000      -0.64310000
H       -0.20310000       1.89650000       0.98580000
H       -1.21370000      -0.19740000       1.53420000
H        1.08670000      -0.33460000       1.98690000
H        1.91190000      -2.71620000       0.98850000
H        1.56470000      -2.65080000      -1.61410000
H        0.26090000      -0.64090000      -4.24700000
