19
Properties=species:S:1:pos:R:3 gdb_31787=T pbc="F F F"
C       -0.12420000       0.55470000       0.84740000
O        0.29470000       0.96120000      -0.44170000
C        0.75820000      -0.03990000      -1.22830000
C        0.91840000      -1.39270000      -1.04140000
C        1.47670000      -1.89710000      -2.25800000
C        1.62410000      -0.84720000      -3.12900000
N        2.06660000      -0.75770000      -4.46930000
N        1.16960000       0.30420000      -2.48800000
C        1.11990000       1.63720000      -3.04910000
H       -0.94420000      -0.17260000       0.78590000
H        0.70500000       0.10520000       1.40910000
H       -0.46970000       1.45310000       1.36120000
H        0.67970000      -1.95390000      -0.15330000
H        1.74170000      -2.92340000      -2.46370000
H        3.07850000      -0.70220000      -4.54270000
H        1.76690000      -1.56440000      -5.00330000
H        0.14200000       2.08920000      -2.86430000
H        1.88590000       2.28810000      -2.61240000
H        1.29060000       1.55020000      -4.12250000
