19
Properties=species:S:1:pos:R:3 gdb_109245=T pbc="F F F"
O        0.18670000       1.33190000       0.01210000
C        0.01700000      -0.07070000      -0.08360000
C       -1.41350000      -0.51590000      -0.03880000
C       -2.50720000       0.25030000      -0.10010000
C       -3.78550000      -0.55280000       0.02840000
C       -3.29540000      -1.99630000       0.09590000
C       -2.52820000      -2.55260000      -1.08840000
C       -1.78170000      -1.96730000       0.08810000
O       -1.02910000      -2.78740000       0.93400000
H       -0.22970000       1.61100000       0.83470000
H        0.47610000      -0.36100000      -1.03890000
H        0.57750000      -0.60430000       0.70170000
H       -2.49820000       1.32150000      -0.26390000
H       -4.34960000      -0.27310000       0.92820000
H       -4.46060000      -0.38500000      -0.82110000
H       -3.81020000      -2.71240000       0.72460000
H       -2.52520000      -3.63510000      -1.17400000
H       -2.52630000      -2.01320000      -2.03070000
H       -0.36580000      -3.23980000       0.40290000
