19
Properties=species:S:1:pos:R:3 gdb_98629=T pbc="F F F"
O        0.26100000       1.31140000       0.02010000
C        0.06310000      -0.06790000       0.00530000
C       -1.41820000      -0.41700000       0.13280000
O       -2.21920000       0.49690000       0.22830000
C       -1.75740000      -1.85900000       0.12930000
C       -2.84050000      -2.52240000       0.97290000
C       -4.08710000      -1.64100000       1.13260000
C       -4.22930000      -1.60380000      -0.42410000
C       -2.97810000      -2.48630000      -0.53470000
H       -0.63220000       1.68450000       0.11100000
H        0.44250000      -0.52200000      -0.92640000
H        0.60360000      -0.56400000       0.83000000
H       -0.88020000      -2.49530000       0.03400000
H       -2.55880000      -3.34670000       1.61780000
H       -4.90470000      -2.18700000       1.60840000
H       -3.94940000      -0.68390000       1.63570000
H       -5.12170000      -2.13020000      -0.76940000
H       -4.18090000      -0.62330000      -0.89780000
H       -2.82130000      -3.27790000      -1.25820000
