16
Properties=species:S:1:pos:R:3 gdb_45717=T pbc="F F F"
N       -0.17960000       1.04890000      -0.92510000
C       -0.03300000       0.08160000      -0.12330000
C       -1.23100000      -0.58320000       0.51890000
C       -0.98630000      -2.02840000       0.85030000
C        0.23670000      -2.44240000       1.15450000
C        1.38350000      -1.45890000       1.14150000
O        1.20740000      -0.41070000       0.16740000
C        1.61480000      -0.89100000       2.47410000
C        1.79760000      -0.43520000       3.57070000
H        0.73190000       1.37940000      -1.24850000
H       -1.47360000      -0.03460000       1.44110000
H       -2.08130000      -0.44330000      -0.15050000
H       -1.83150000      -2.70920000       0.85570000
H        0.46640000      -3.46320000       1.43760000
H        2.29970000      -1.96340000       0.81430000
H        1.96190000      -0.02800000       4.53800000
