12
Properties=species:S:1:pos:R:3 gdb_5175=T pbc="F F F"
O       -0.01400000       0.49890000       1.16330000
C       -0.00240000       1.32600000       0.28930000
N        1.12350000       1.73840000      -0.39450000
C        2.38820000       1.20810000      -0.17030000
C        3.51880000       1.67360000       0.41220000
N        4.51070000       0.70800000       0.32620000
C        3.93500000      -0.27740000      -0.28390000
O        2.65050000      -0.06060000      -0.63110000
H       -0.90280000       1.86190000      -0.06960000
H        1.00270000       2.41500000      -1.13390000
H        3.68440000       2.62750000       0.88620000
H        4.35090000      -1.23960000      -0.53940000
