16
Properties=species:S:1:pos:R:3 gdb_42267=T pbc="F F F"
O        0.19660000      -0.09220000       0.91020000
C       -0.00580000       0.96840000       0.36290000
C        1.05240000       1.68130000      -0.33850000
C        1.91590000       2.29190000      -0.91420000
C       -1.35140000       1.66610000       0.39860000
C       -1.97680000       2.26890000      -0.91750000
C       -3.19060000       1.36080000      -0.68490000
N       -2.66030000      -0.02100000      -0.70700000
C       -2.58590000       0.77220000       0.54200000
H        2.69140000       2.81400000      -1.42020000
H       -1.30270000       2.43750000       1.17550000
H       -2.19200000       3.33440000      -0.82340000
H       -1.42910000       2.08070000      -1.84320000
H       -4.22660000       1.56880000      -0.91980000
H       -3.45020000      -0.65790000      -0.60780000
H       -3.04310000       0.41930000       1.45670000
