19
Properties=species:S:1:pos:R:3 gdb_116105=T pbc="F F F"
C        0.02970000       1.37720000       0.14730000
O       -0.07630000      -0.01470000      -0.07050000
C        0.64420000      -0.49620000      -1.18830000
C        2.12710000      -0.73280000      -0.86660000
O        2.79740000      -1.25250000      -2.00130000
C        2.35060000      -2.54650000      -2.36170000
C        0.84020000      -2.61230000      -2.59860000
O        0.36360000      -3.28750000      -3.47840000
C       -0.00430000      -1.81750000      -1.61300000
H        1.05250000       1.69100000       0.39960000
H       -0.30040000       1.94880000      -0.73300000
H       -0.62340000       1.61810000       0.98940000
H        0.58700000       0.22570000      -2.01870000
H        2.63480000       0.20120000      -0.61380000
H        2.20940000      -1.41530000      -0.00410000
H        2.86850000      -2.83180000      -3.27910000
H        2.60370000      -3.28200000      -1.57550000
H       -0.10620000      -2.43400000      -0.70770000
H       -1.00570000      -1.67300000      -2.02400000
