16
Properties=species:S:1:pos:R:3 gdb_68118=T pbc="F F F"
C       -0.01950000       1.51210000      -0.04620000
C       -0.02590000       0.01680000       0.00470000
C        0.77130000      -1.02520000      -0.85930000
C        0.06870000      -1.87390000       0.23550000
N        0.34260000      -0.78310000       1.26890000
C        0.16550000      -3.32360000       0.53720000
O        0.48800000      -4.15430000      -0.27620000
C       -1.19160000      -0.98410000      -0.09340000
O       -2.34800000      -1.06150000      -0.32540000
H        0.99450000       1.90880000       0.06710000
H       -0.41500000       1.86030000      -1.00510000
H       -0.64260000       1.92170000       0.75370000
H        0.50080000      -1.17500000      -1.90790000
H        1.85470000      -0.95860000      -0.72110000
H        1.36220000      -0.72040000       1.37360000
H       -0.11170000      -3.59070000       1.57990000
