16
Properties=species:S:1:pos:R:3 gdb_44023=T pbc="F F F"
N       -0.00280000       1.17590000      -0.40540000
C       -0.04800000      -0.01820000      -0.03970000
O        1.01180000      -0.87880000       0.36480000
C        0.01890000      -1.82760000       0.84620000
C       -0.67170000      -1.73770000       2.20610000
C       -1.78840000      -2.00790000       1.17610000
C       -0.87560000      -2.99230000       0.29050000
C       -1.16570000      -2.22840000      -1.00640000
C       -1.09650000      -1.11370000       0.06760000
H        0.95290000       1.53770000      -0.39370000
H       -0.46040000      -2.52380000       2.93470000
H       -0.68940000      -0.74980000       2.67420000
H       -2.85740000      -2.14280000       1.35050000
H       -0.76860000      -4.06750000       0.45830000
H       -0.36770000      -2.22920000      -1.75330000
H       -2.13880000      -2.38680000      -1.47720000
