18
Properties=species:S:1:pos:R:3 gdb_6467=T pbc="F F F"
C       -0.04920000       1.53370000       0.13330000
O        0.00090000       0.13110000       0.28620000
C       -1.19940000      -0.56060000       0.00910000
C       -2.33750000      -0.19460000       0.95910000
C       -1.62240000      -0.58360000      -1.50690000
C       -1.59310000      -2.11640000      -1.42560000
O       -2.01370000      -2.98960000      -2.12750000
C       -0.91040000      -2.08990000      -0.05360000
H        0.97500000       1.89850000       0.24180000
H       -0.42240000       1.82570000      -0.85970000
H       -0.67410000       2.01910000       0.89520000
H       -2.66690000       0.83990000       0.82310000
H       -3.20450000      -0.83890000       0.78290000
H       -2.01870000      -0.32480000       1.99800000
H       -2.57060000      -0.12640000      -1.80030000
H       -0.82350000      -0.20940000      -2.15570000
H        0.16490000      -2.27780000      -0.13340000
H       -1.33350000      -2.72920000       0.72490000
