27
Properties=species:S:1:pos:R:3 gdb_104169=T pbc="F F F"
C        0.13120000       1.57390000       0.09150000
C       -0.02220000       0.05350000      -0.02820000
C       -1.46790000      -0.49200000       0.00090000
C       -2.20710000      -0.01050000       1.26180000
C       -2.27320000      -0.09990000      -1.28880000
C       -2.54230000      -1.41030000      -2.05260000
C       -2.59970000      -2.48090000      -0.95120000
C       -2.51900000      -3.92260000      -1.44780000
C       -1.44210000      -2.05030000      -0.03530000
H        1.18180000       1.86330000      -0.01260000
H       -0.43290000       2.10200000      -0.68480000
H       -0.21530000       1.94320000       1.06140000
H        0.44960000      -0.28100000      -0.96190000
H        0.54490000      -0.42570000       0.78170000
H       -2.38890000       1.06860000       1.23830000
H       -3.18160000      -0.50290000       1.35290000
H       -1.63440000      -0.23570000       2.16930000
H       -3.22230000       0.36950000      -1.00720000
H       -1.73790000       0.63070000      -1.90260000
H       -3.44830000      -1.36950000      -2.66570000
H       -1.70770000      -1.63850000      -2.72920000
H       -3.54450000      -2.35330000      -0.40250000
H       -1.59160000      -4.09090000      -2.00860000
H       -2.53800000      -4.63560000      -0.61640000
H       -3.35670000      -4.16430000      -2.11110000
H       -0.49760000      -2.39720000      -0.47620000
H       -1.50260000      -2.48740000       0.96720000
