16
Properties=species:S:1:pos:R:3 gdb_30085=T pbc="F F F"
C       -0.44270000       1.37740000       0.00740000
N        0.01850000      -0.00390000      -0.02510000
C        0.22970000      -0.65950000      -1.22680000
C        0.65400000      -1.92980000      -1.26800000
N        0.88940000      -2.61100000      -0.07460000
C        0.71480000      -2.06370000       1.16840000
O        0.92620000      -2.67570000       2.19850000
C        0.23440000      -0.62650000       1.19570000
N        0.03300000      -0.00260000       2.29190000
H        0.27970000       2.00500000       0.53700000
H       -0.56830000       1.73570000      -1.01510000
H       -1.39170000       1.44680000       0.54670000
H        0.03400000      -0.09170000      -2.12400000
H        0.82750000      -2.46750000      -2.18660000
H        1.20970000      -3.56840000      -0.08660000
H        0.25260000      -0.64420000       3.05580000
