17
Properties=species:S:1:pos:R:3 gdb_50546=T pbc="F F F"
O       -0.33090000       0.30320000       0.57440000
C        0.11470000       1.00910000      -0.29390000
C        1.23450000       2.00410000      -0.13190000
C        1.00060000       3.42280000      -0.70420000
O        1.23670000       4.01840000       0.58170000
C        1.48430000       2.74070000       1.21300000
C        0.55520000       2.49060000       2.40470000
C        0.85860000       3.38630000       3.51400000
C        1.12830000       4.12300000       4.42410000
H       -0.28220000       0.95250000      -1.33510000
H        2.13460000       1.52640000      -0.53600000
H        1.72310000       3.75650000      -1.45770000
H       -0.01460000       3.62220000      -1.07330000
H        2.52560000       2.67370000       1.55030000
H       -0.48560000       2.61900000       2.08910000
H        0.65510000       1.44490000       2.71530000
H        1.35570000       4.77670000       5.22910000
