16
Properties=species:S:1:pos:R:3 gdb_3554=T pbc="F F F"
C       -0.03480000       1.58030000      -0.01360000
C        0.07700000       0.06820000      -0.08160000
C        0.74870000      -0.67290000      -1.26020000
C        2.18530000      -0.08660000      -1.29810000
C        2.34380000      -0.69040000       0.09600000
C        1.25940000      -1.66960000      -0.14690000
N        1.04450000      -0.59780000       0.86200000
H        0.92650000       2.07770000      -0.16260000
H       -0.73310000       1.94870000      -0.77350000
H       -0.41460000       1.88120000       0.96820000
H       -0.89940000      -0.38330000       0.12690000
H        0.21650000      -0.90930000      -2.18010000
H        2.81010000      -0.62670000      -2.01450000
H        2.31070000       0.99050000      -1.44520000
H        3.23650000      -0.79040000       0.69900000
H        1.14630000      -2.72790000       0.04680000
