17
Properties=species:S:1:pos:R:3 gdb_89655=T pbc="F F F"
C       -0.08080000       1.51250000       0.04350000
C        0.20620000       0.05190000      -0.04820000
O       -0.63830000      -0.86060000       0.67250000
C        0.79300000      -0.92220000       0.91210000
C        1.36870000      -1.78690000      -0.21680000
C        0.72160000      -0.78190000      -1.24400000
O       -0.25860000      -1.26100000      -2.11940000
C        1.27280000      -0.74970000       2.23940000
C        1.71740000      -0.62030000       3.34950000
H        0.76980000       2.09530000      -0.32330000
H       -0.95380000       1.76830000      -0.56670000
H       -0.28470000       1.79660000       1.07890000
H        2.46010000      -1.78970000      -0.25030000
H        0.99080000      -2.81130000      -0.25000000
H        1.47040000      -0.26230000      -1.84680000
H       -0.96480000      -1.61040000      -1.56000000
H        2.10000000      -0.50460000       4.33340000
