18
Properties=species:S:1:pos:R:3 gdb_15787=T pbc="F F F"
C       -0.09730000       1.80140000       0.16600000
C       -0.09600000       0.27460000       0.00820000
C        0.68140000      -0.42750000       1.14450000
C        2.16400000      -0.14740000       1.07820000
O        2.82350000       0.32930000       1.96540000
C       -1.51180000      -0.25990000      -0.04950000
C       -2.19130000      -0.55260000      -1.31710000
O       -1.66640000      -1.60520000      -0.50270000
H        0.92150000       2.19840000       0.20280000
H       -0.61930000       2.28270000      -0.66660000
H       -0.59750000       2.09840000       1.09470000
H        0.38710000       0.01110000      -0.94250000
H        0.30870000      -0.13000000       2.12980000
H        0.54370000      -1.51160000       1.03020000
H        2.63300000      -0.42310000       0.10290000
H       -2.13330000      -0.01100000       0.81430000
H       -3.27750000      -0.50620000      -1.37840000
H       -1.66590000      -0.38490000      -2.25660000
