13
Properties=species:S:1:pos:R:3 gdb_42213=T pbc="F F F"
O        0.56320000       1.50430000       1.64800000
C        0.10010000       1.62900000       0.54610000
C        0.87000000       1.23810000      -0.64950000
N        1.51410000       0.91690000      -1.55390000
C       -1.26910000       2.17880000       0.27650000
N       -2.07250000       2.56600000       1.17800000
C       -3.27840000       3.02060000       0.46720000
C       -2.96460000       2.80070000      -1.03780000
O       -1.62240000       2.24490000      -1.02790000
H       -4.14150000       2.44230000       0.81160000
H       -3.47090000       4.06930000       0.71380000
H       -3.62350000       2.07930000      -1.52610000
H       -2.94240000       3.72220000      -1.62370000
