17
Properties=species:S:1:pos:R:3 gdb_69893=T pbc="F F F"
C       -0.02330000       1.57640000       0.20060000
C       -0.01360000       0.08100000       0.07600000
C       -0.83110000      -0.86540000       0.90910000
C        0.67590000      -0.96130000       0.95250000
C        1.22420000      -1.64630000      -0.32530000
O        0.16530000      -2.03960000      -1.17440000
C        0.54330000      -0.65730000      -1.20020000
C        1.03140000      -0.06920000      -2.46330000
O        1.35190000      -0.70630000      -3.43660000
H        0.94010000       2.01640000      -0.08290000
H       -0.79470000       2.02670000      -0.43560000
H       -0.23000000       1.87340000       1.23340000
H       -1.27200000      -0.41380000       1.79240000
H       -1.41570000      -1.65370000       0.45230000
H        1.26230000      -0.80520000       1.84790000
H        2.18750000      -2.12340000      -0.46340000
H        1.10660000       1.04010000      -2.44230000
