18
Properties=species:S:1:pos:R:3 gdb_52199=T pbc="F F F"
O       -0.14430000      -0.11590000      -0.15900000
C        0.08820000       1.03440000       0.10800000
C        1.36870000       1.76240000      -0.23000000
C        1.10290000       3.05130000      -1.01910000
N        2.33840000       3.82220000      -1.12620000
C        3.18450000       3.55830000      -2.27840000
C        2.42660000       4.85000000      -2.18290000
C        1.33250000       5.11510000      -3.07660000
C        0.41200000       5.37700000      -3.80550000
H       -0.66280000       1.65800000       0.64910000
H        1.86140000       2.03690000       0.71310000
H        2.02800000       1.08330000      -0.77750000
H        0.66800000       2.81000000      -2.00110000
H        0.37020000       3.67040000      -0.48760000
H        4.25560000       3.54980000      -2.09730000
H        2.83230000       2.84550000      -3.02210000
H        2.97030000       5.73640000      -1.86420000
H       -0.39520000       5.60210000      -4.45800000
