19
Properties=species:S:1:pos:R:3 gdb_115357=T pbc="F F F"
O        0.15050000       1.22650000      -0.38180000
C        0.06700000      -0.17120000      -0.18150000
C       -1.36730000      -0.61080000       0.05860000
O       -2.13440000      -0.24040000      -1.10880000
C       -3.22710000      -1.15100000      -1.17250000
C       -2.56340000      -2.49580000      -0.91100000
O       -1.81430000      -2.92800000      -2.04530000
C       -1.58530000      -2.14740000       0.25040000
O       -0.41210000      -2.92270000       0.20560000
H       -0.49250000       1.44410000      -1.06620000
H        0.47890000      -0.73040000      -1.03560000
H        0.67930000      -0.41500000       0.69050000
H       -1.77340000      -0.05970000       0.91930000
H       -3.98420000      -0.92410000      -0.40500000
H       -3.68630000      -1.07910000      -2.16140000
H       -3.25350000      -3.30450000      -0.66460000
H       -1.44390000      -2.13170000      -2.44930000
H       -2.06640000      -2.33020000       1.21720000
H       -0.36640000      -3.26750000      -0.69930000
