18
Properties=species:S:1:pos:R:3 gdb_80069=T pbc="F F F"
O        0.12450000       1.42280000      -0.18620000
C       -0.00330000       0.04850000      -0.01030000
C        0.21870000      -0.63110000       1.39290000
C       -0.37910000       0.30030000       2.40850000
C       -1.68350000       0.54800000       2.23550000
C       -2.34730000      -0.31910000       1.19540000
C       -2.02800000      -1.78120000       1.65080000
N       -0.73970000      -1.74170000       0.90660000
C       -1.35690000      -0.65820000       0.01220000
H       -0.36270000       1.84510000       0.53320000
H        0.63380000      -0.43800000      -0.75240000
H        1.21140000      -1.00360000       1.64430000
H        0.23610000       0.76690000       3.17000000
H       -2.26780000       1.20970000       2.86610000
H       -3.37270000      -0.03790000       0.95290000
H       -1.97620000      -1.97810000       2.72480000
H       -2.66540000      -2.52420000       1.16100000
H       -1.83760000      -0.97330000      -0.91760000
