21
Properties=species:S:1:pos:R:3 gdb_94943=T pbc="F F F"
C        0.45540000       1.41350000      -0.28850000
C       -0.10140000       0.03980000       0.08620000
O        0.09490000      -0.91110000      -0.97400000
C        1.26010000      -1.69590000      -0.71970000
C        1.47480000      -1.67480000       0.78090000
C        0.59110000      -0.55220000       1.30260000
C        0.30200000      -1.97410000       1.69430000
C       -0.92540000      -2.74070000       1.25740000
O        0.66070000      -2.20450000       3.03870000
H        1.54410000       1.38010000      -0.40000000
H        0.02090000       1.74740000      -1.23460000
H        0.21440000       2.15220000       0.48330000
H       -1.18850000       0.11380000       0.21630000
H        1.07210000      -2.69210000      -1.13720000
H        2.14220000      -1.27830000      -1.22970000
H        2.47280000      -1.82730000       1.17520000
H        0.93550000       0.11430000       2.08450000
H       -1.20710000      -2.50320000       0.23070000
H       -0.74100000      -3.82100000       1.31800000
H       -1.76520000      -2.50970000       1.92070000
H        0.89410000      -3.13600000       3.12200000
