13
Properties=species:S:1:pos:R:3 gdb_24990=T pbc="F F F"
O        0.00460000       0.02000000       0.20310000
C       -0.01250000       1.22510000       0.16080000
N       -1.14750000       2.06420000       0.10250000
C       -0.71930000       3.33150000      -0.25700000
C        0.62470000       3.34990000      -0.27520000
N        1.09700000       2.09500000       0.07190000
O        1.09960000       4.59080000       0.08200000
C       -0.07360000       5.39520000      -0.13160000
O       -1.21810000       4.55910000       0.11330000
H       -2.03340000       1.64540000      -0.13540000
H        1.98740000       1.70050000      -0.19020000
H       -0.07580000       6.23730000       0.55940000
H       -0.09220000       5.71690000      -1.18400000
