21
Properties=species:S:1:pos:R:3 gdb_110708=T pbc="F F F"
C       -0.11240000       1.70550000       0.43510000
C       -0.03880000       0.19700000       0.26900000
C        1.04960000      -0.49180000      -0.63890000
C        2.33850000      -0.02250000       0.04800000
C        2.07120000      -0.17850000       1.34860000
C        0.63810000      -0.72930000       1.35060000
C        0.78490000      -1.80030000       0.20300000
C       -0.39940000      -2.68510000      -0.14710000
O       -0.07180000      -3.35390000      -1.36070000
H        0.85720000       2.13700000       0.69440000
H       -0.45890000       2.17750000      -0.49140000
H       -0.82640000       1.97220000       1.22280000
H       -1.03590000      -0.17490000       0.01670000
H        0.99520000      -0.48450000      -1.72690000
H        3.23330000       0.33640000      -0.44050000
H        2.68450000       0.01950000       2.21610000
H        0.16380000      -0.95510000       2.30720000
H        1.66590000      -2.44000000       0.30050000
H       -0.55220000      -3.40590000       0.67370000
H       -1.33350000      -2.11660000      -0.25440000
H       -0.79640000      -3.94650000      -1.58080000
