19
Properties=species:S:1:pos:R:3 gdb_92289=T pbc="F F F"
C        0.15030000       1.59590000      -0.06400000
C        0.08820000       0.08400000       0.03810000
N        1.00270000      -0.66650000      -0.85830000
C        1.27250000      -1.66800000       0.20190000
C        2.72230000      -2.10260000       0.35700000
N        3.59920000      -1.10410000       0.95430000
C        3.08360000      -0.15290000       1.60050000
O        1.77970000       0.14010000       1.85470000
C        0.75870000      -0.64130000       1.23950000
H        1.17400000       1.94960000       0.07180000
H       -0.19930000       1.92200000      -1.04920000
H       -0.48690000       2.06420000       0.69360000
H       -0.95710000      -0.25810000      -0.03260000
H        0.59080000      -1.03000000      -1.71120000
H        0.60610000      -2.54230000       0.16390000
H        2.76910000      -3.00860000       0.97740000
H        3.13150000      -2.37870000      -0.62210000
H        3.71050000       0.59760000       2.07880000
H        0.10480000      -0.99760000       2.03650000
