25
Properties=species:S:1:pos:R:3 gdb_103990=T pbc="F F F"
C        0.00260000       1.53590000       0.17870000
C       -0.12900000       0.03150000      -0.09160000
C        0.69780000      -0.49320000      -1.27500000
C        0.26230000       0.15510000      -2.59270000
C        2.26740000      -0.45650000      -1.13910000
C        2.31290000      -1.97240000      -1.34820000
C        1.53510000      -2.64240000      -0.25120000
C        0.78380000      -2.04210000      -1.41310000
C       -0.11440000      -2.88590000      -2.27680000
H        1.04900000       1.82270000       0.33100000
H       -0.38920000       2.13890000      -0.64600000
H       -0.55070000       1.81670000       1.08040000
H        0.15840000      -0.51150000       0.81550000
H       -1.18580000      -0.21440000      -0.26640000
H        0.44810000       1.23350000      -2.58090000
H        0.81720000      -0.26310000      -3.43910000
H       -0.80630000       0.00180000      -2.78330000
H        2.73960000       0.12120000      -1.93750000
H        2.66520000      -0.10790000      -0.17910000
H        3.04640000      -2.50580000      -1.94210000
H        1.56390000      -3.72810000      -0.24890000
H        1.50900000      -2.20570000       0.74450000
H       -1.11930000      -2.97290000      -1.84490000
H       -0.22320000      -2.47540000      -3.28600000
H        0.28530000      -3.90090000      -2.37490000
