21
Properties=species:S:1:pos:R:3 gdb_92167=T pbc="F F F"
C       -0.28920000       1.52550000       0.00700000
C        0.03030000       0.03280000      -0.02640000
O        0.71990000      -0.33160000      -1.23530000
C        2.01120000      -0.80010000      -0.87770000
C        2.88000000       0.33820000      -0.25560000
C        2.39150000      -0.12800000       1.11780000
C        1.89970000      -1.44840000       0.52580000
C        0.90800000      -0.49230000       1.11260000
C        0.25650000      -0.77500000       2.44520000
H        0.61820000       2.13140000       0.06880000
H       -0.83800000       1.81410000      -0.89380000
H       -0.91680000       1.75860000       0.87440000
H       -0.91970000      -0.52350000      -0.01620000
H        2.42290000      -1.36200000      -1.71510000
H        3.94870000       0.13410000      -0.37500000
H        2.66470000       1.35570000      -0.59470000
H        2.90380000       0.02810000       2.06100000
H        2.05540000      -2.47660000       0.82480000
H        0.96570000      -1.23030000       3.14320000
H       -0.11870000       0.14370000       2.91010000
H       -0.59070000      -1.46140000       2.33320000
