19
Properties=species:S:1:pos:R:3 gdb_99483=T pbc="F F F"
C        0.02750000       1.61150000       0.00530000
C        0.03690000       0.08360000       0.07320000
C        0.59120000      -0.57150000      -1.20840000
C        1.98530000      -0.17810000      -1.45400000
N        3.07990000       0.15200000      -1.62230000
C        0.48750000      -2.09580000      -1.20390000
N        0.10020000      -2.72750000      -0.18030000
O        0.85200000      -2.56810000      -2.41940000
C        0.87400000      -3.97870000      -2.60090000
H        1.03640000       2.01420000      -0.12660000
H       -0.58880000       1.97200000      -0.82600000
H       -0.38270000       2.03030000       0.92850000
H        0.62590000      -0.26460000       0.92570000
H       -0.97420000      -0.30430000       0.22200000
H        0.01260000      -0.22170000      -2.07450000
H        0.06650000      -3.73600000      -0.31890000
H       -0.12640000      -4.41100000      -2.47980000
H        1.21950000      -4.14490000      -3.62120000
H        1.56610000      -4.45630000      -1.89800000
