23
Properties=species:S:1:pos:R:3 gdb_90076=T pbc="F F F"
C       -0.23630000       1.55100000      -0.06100000
C       -0.02680000       0.04090000      -0.02220000
C        0.95700000      -0.56900000      -1.10470000
C        2.02290000      -0.67530000       0.00700000
C        3.06220000      -1.59070000       0.70640000
C        3.14920000      -0.33680000       1.66880000
C        2.96620000       0.50360000       0.38190000
C        1.73230000      -0.15980000       2.30650000
C        0.91600000      -0.60600000       1.06330000
H        0.69790000       2.11290000      -0.12810000
H       -0.84390000       1.82620000      -0.93070000
H       -0.76780000       1.89350000       0.83390000
H       -1.01250000      -0.43440000      -0.03040000
H        0.60220000      -1.53910000      -1.46480000
H        1.20360000       0.05670000      -1.96770000
H        2.70240000      -2.54270000       1.10830000
H        4.00600000      -1.73450000       0.17330000
H        4.01260000      -0.20020000       2.32160000
H        3.85790000       0.52240000      -0.25100000
H        2.56560000       1.51340000       0.48900000
H        1.55460000      -0.79820000       3.17670000
H        1.57970000       0.87880000       2.61760000
H        0.51760000      -1.61090000       1.24290000
