18
Properties=species:S:1:pos:R:3 gdb_85180=T pbc="F F F"
C        0.32220000       1.45110000      -0.28400000
C       -0.02810000       0.03390000       0.10750000
O        0.66790000      -0.96160000      -0.73640000
C        1.28360000      -1.52790000       0.34050000
O        2.07500000      -2.41930000       0.34670000
C        0.62550000      -0.60060000       1.36710000
C        1.54580000       0.21730000       2.24170000
C        2.69880000      -0.42040000       2.92520000
N        2.92200000       0.55470000       1.84160000
H        1.39320000       1.64400000      -0.18920000
H        0.01910000       1.64110000      -1.31750000
H       -0.21120000       2.15680000       0.36130000
H       -1.10410000      -0.14630000       0.03520000
H       -0.09950000      -1.13740000       1.98760000
H        1.04330000       1.03660000       2.75310000
H        2.99160000      -0.08480000       3.91570000
H        2.88930000      -1.46790000       2.71100000
H        3.18350000       0.04980000       0.99730000
