19
Properties=species:S:1:pos:R:3 gdb_119754=T pbc="F F F"
C        0.07330000       1.56210000      -0.02660000
C       -0.05930000       0.04370000      -0.05540000
N        0.71510000      -0.52560000      -1.14830000
C        0.78890000      -1.87100000      -1.33610000
C        0.39810000      -2.89530000      -0.54940000
C        0.76110000      -4.14740000      -1.19400000
N        0.56800000      -5.32850000      -0.77680000
O        1.37900000      -3.85170000      -2.40470000
C        1.44580000      -2.44390000      -2.57000000
H        1.11860000       1.86240000       0.09200000
H       -0.31040000       2.01090000      -0.95020000
H       -0.50100000       1.97790000       0.80510000
H        0.31670000      -0.38410000       0.88150000
H       -1.11860000      -0.24700000      -0.13270000
H        0.80170000       0.05160000      -1.97130000
H       -0.10460000      -2.85940000       0.40320000
H        0.92710000      -6.00460000      -1.45150000
H        0.92290000      -2.15380000      -3.49290000
H        2.49410000      -2.12760000      -2.66100000
