17
Properties=species:S:1:pos:R:3 gdb_66537=T pbc="F F F"
C        0.08360000       1.53990000       0.04610000
C        0.00910000       0.04940000       0.00640000
C        0.86490000      -0.96430000      -0.74610000
C        0.80180000      -1.00180000       0.77640000
C       -0.38420000      -2.00390000       0.68700000
C       -0.32250000      -1.96720000      -0.80440000
C       -1.20400000      -0.92840000      -0.06790000
C       -2.65540000      -0.83150000      -0.12550000
O       -3.39710000      -1.79110000      -0.18050000
H        1.12720000       1.86920000       0.09720000
H       -0.36310000       1.98990000      -0.84820000
H       -0.43590000       1.94640000       0.92180000
H        1.71000000      -0.80110000      -1.40080000
H        1.58960000      -0.87260000       1.50600000
H       -0.79390000      -2.74850000       1.35550000
H       -0.67400000      -2.67730000      -1.54020000
H       -3.06050000       0.20600000      -0.11660000
