18
Properties=species:S:1:pos:R:3 gdb_31818=T pbc="F F F"
C        0.04110000       1.53000000      -0.20130000
C       -0.01310000       0.01840000       0.07090000
C       -1.41750000      -0.52840000       0.03210000
N       -2.27030000      -0.13090000       0.99410000
C       -3.50740000      -0.59320000       0.95390000
C       -3.94250000      -1.48050000      -0.05240000
N       -5.24950000      -1.91800000      -0.12130000
N       -3.10270000      -1.89030000      -1.00430000
C       -1.85880000      -1.40770000      -0.95330000
H        1.06510000       1.90660000      -0.11690000
H       -0.32520000       1.76260000      -1.20670000
H       -0.58460000       2.06570000       0.51780000
H        0.60420000      -0.51700000      -0.65900000
H        0.41520000      -0.18300000       1.06000000
H       -4.19100000      -0.26500000       1.73540000
H       -5.76850000      -1.94490000       0.74220000
H       -5.38150000      -2.72580000      -0.71180000
H       -1.18020000      -1.74600000      -1.73350000
