19
Properties=species:S:1:pos:R:3 gdb_50465=T pbc="F F F"
O       -0.17320000      -0.01440000       0.00540000
C       -0.04450000       1.18170000       0.00790000
C        1.27900000       1.91890000      -0.00030000
C        1.38120000       2.79650000      -1.26450000
C        2.68720000       3.61470000      -1.28840000
C        2.88540000       4.41110000      -0.00560000
O        3.16660000       5.58610000      -0.00440000
C        2.70740000       3.60720000       1.27550000
C        1.40110000       2.78900000       1.26730000
H       -0.93570000       1.85520000       0.01710000
H        2.07030000       1.16010000      -0.00880000
H        1.31920000       2.17430000      -2.16330000
H        0.52390000       3.48220000      -1.29710000
H        3.53810000       2.92590000      -1.38650000
H        2.71660000       4.30290000      -2.13630000
H        3.55970000       2.91780000       1.35610000
H        2.75020000       4.29040000       2.12680000
H        0.54450000       3.47450000       1.31740000
H        1.35330000       2.16160000       2.16330000
