21
Properties=species:S:1:pos:R:3 gdb_116141=T pbc="F F F"
C       -0.07770000       1.35980000       0.07550000
O        0.09310000      -0.03760000       0.05760000
C        0.68040000      -0.54210000      -1.13700000
C        1.28680000      -1.90180000      -0.78300000
O        1.68850000      -2.58600000      -1.95280000
C        0.59940000      -2.93300000      -2.78290000
C       -0.40050000      -1.81940000      -2.98660000
C       -1.44180000      -2.05420000      -4.04400000
C       -0.33540000      -0.71730000      -2.23860000
H        0.87970000       1.88790000      -0.05810000
H       -0.77310000       1.71270000      -0.70080000
H       -0.49150000       1.62180000       1.05260000
H        1.48340000       0.14210000      -1.46040000
H        2.17790000      -1.78410000      -0.16190000
H        0.53930000      -2.47640000      -0.21370000
H        1.03220000      -3.23530000      -3.74470000
H        0.07370000      -3.81980000      -2.38020000
H       -2.01090000      -2.97100000      -3.84270000
H       -2.14920000      -1.22300000      -4.09930000
H       -0.98450000      -2.18190000      -5.03360000
H       -1.04940000       0.08890000      -2.39030000
