13
Properties=species:S:1:pos:R:3 gdb_11140=T pbc="F F F"
N       -0.05350000       1.31470000       0.04860000
C       -0.04870000       0.05090000       0.01650000
O        1.08250000      -0.73470000      -0.04310000
C        0.70920000      -2.12480000      -0.05790000
C       -0.80400000      -2.10300000       0.00040000
C       -1.21700000      -0.83950000       0.04260000
C        1.23710000      -2.80180000      -1.23990000
C        1.65840000      -3.38310000      -2.20230000
H        0.89900000       1.68090000       0.01430000
H        1.13280000      -2.59150000       0.84360000
H       -1.39400000      -3.00850000      -0.00480000
H       -2.22740000      -0.46160000       0.08850000
H        2.03660000      -3.88870000      -3.05670000
