18
Properties=species:S:1:pos:R:3 gdb_62196=T pbc="F F F"
N        0.06500000       1.52600000      -0.08700000
C        0.01870000       0.06450000      -0.02260000
C       -1.40430000      -0.53780000       0.09700000
N       -2.04390000       0.00310000       1.28830000
C       -3.48310000      -0.27460000       1.35430000
C       -4.05270000       0.17560000       2.61900000
C       -4.50970000       0.52670000       3.67280000
C        0.70520000      -0.51630000      -1.18360000
N        1.20920000      -0.98920000      -2.10910000
H       -0.30710000       1.83710000      -0.98070000
H       -0.57610000       1.86700000       0.62680000
H        0.58490000      -0.24320000       0.86870000
H       -1.98780000      -0.22970000      -0.77910000
H       -1.34970000      -1.64000000       0.07810000
H       -1.60240000      -0.37320000       2.12230000
H       -3.96850000       0.25190000       0.52200000
H       -3.71790000      -1.34600000       1.21700000
H       -4.92170000       0.84380000       4.59900000
