22
Properties=species:S:1:pos:R:3 gdb_86896=T pbc="F F F"
C        0.33320000       1.70350000      -0.09160000
C        0.11750000       0.18800000       0.00410000
C        0.77590000      -0.55770000      -1.17160000
N        2.15120000      -0.75700000      -0.71400000
C        2.27210000      -0.66250000       0.74120000
C        0.81710000      -0.48480000       1.21790000
C        0.68660000       0.22140000       2.56530000
C        3.22750000      -0.93460000      -1.51440000
O        4.36870000      -1.07140000      -1.11750000
H        1.39700000       1.96000000      -0.13480000
H       -0.13830000       2.09960000      -0.99670000
H       -0.10360000       2.22760000       0.76300000
H       -0.95810000      -0.01560000       0.02630000
H        0.27340000      -1.51930000      -1.34930000
H        0.75430000       0.01000000      -2.10680000
H        2.75110000      -1.55590000       1.15350000
H        2.90410000       0.19280000       1.01220000
H        0.37720000      -1.48630000       1.31500000
H        1.14980000       1.21270000       2.55000000
H       -0.36410000       0.34310000       2.84870000
H        1.17620000      -0.35810000       3.35480000
H        2.95510000      -0.93970000      -2.58980000
