20
Properties=species:S:1:pos:R:3 gdb_93140=T pbc="F F F"
O        0.21150000       1.41060000       0.12750000
C        0.05140000       0.01200000      -0.00620000
C        0.77250000      -0.69220000       1.14740000
C        0.23980000      -0.51460000       2.54940000
C       -0.85710000       0.09810000       2.99980000
C       -1.90320000       0.83400000       2.19140000
C       -2.37410000       0.05580000       0.97300000
N       -2.35460000       0.73220000      -0.34340000
C       -1.42270000      -0.37780000      -0.07430000
H       -0.57610000       1.79850000      -0.28590000
H        0.52770000      -0.32360000      -0.94440000
H        0.81020000      -1.76890000       0.92040000
H        1.82010000      -0.36200000       1.13270000
H        0.88120000      -0.97550000       3.30040000
H       -1.01170000       0.10070000       4.07670000
H       -2.76430000       1.06490000       2.82770000
H       -1.49150000       1.79100000       1.85710000
H       -3.21210000      -0.61440000       1.15460000
H       -3.12810000       0.43400000      -0.92940000
H       -1.61380000      -1.33300000      -0.55930000
