15
Properties=species:S:1:pos:R:3 gdb_109102=T pbc="F F F"
C       -0.00570000       1.44110000       0.05880000
N        0.00590000      -0.00100000      -0.07630000
C        0.61740000      -0.63490000      -1.09420000
N        1.20050000      -0.07060000      -2.10210000
C        1.72130000      -1.08900000      -3.02450000
C        1.39720000      -2.45130000      -2.42640000
O        1.64550000      -3.55030000      -2.84060000
C        0.64770000      -2.12870000      -1.11120000
O        0.20320000      -2.89040000      -0.29110000
H        0.98990000       1.83850000       0.29290000
H       -0.33620000       1.90020000      -0.87730000
H       -0.69630000       1.71950000       0.85650000
H       -0.32440000      -0.58660000       0.67370000
H        1.26990000      -0.98620000      -4.01960000
H        2.80390000      -0.97590000      -3.16300000
