21
Properties=species:S:1:pos:R:3 gdb_57909=T pbc="F F F"
C       -1.20030000       1.13320000      -0.04680000
C       -0.10920000       0.05800000       0.15160000
C        1.11550000       0.62090000       0.88020000
C       -0.71850000      -1.10460000       0.93020000
O       -0.72570000      -1.15650000       2.13990000
C       -1.32570000      -2.24620000       0.12110000
C       -2.64360000      -2.86020000       0.62880000
C       -3.19620000      -2.44350000      -0.74950000
O       -1.93570000      -1.83330000      -1.12420000
H       -0.79370000       1.97890000      -0.60990000
H       -2.05040000       0.72880000      -0.60040000
H       -1.55140000       1.50540000       0.92110000
H        0.17500000      -0.31160000      -0.84070000
H        1.51650000       1.48470000       0.34140000
H        0.84550000       0.93360000       1.89200000
H        1.91040000      -0.12650000       0.96480000
H       -0.51930000      -2.97580000      -0.05790000
H       -2.62240000      -3.93100000       0.83010000
H       -3.06390000      -2.33870000       1.48900000
H       -3.45360000      -3.27030000      -1.42140000
H       -4.01460000      -1.71500000      -0.74830000
