16
Properties=species:S:1:pos:R:3 gdb_99410=T pbc="F F F"
C       -0.06940000       1.37120000      -0.10480000
N       -0.25830000      -0.03460000       0.20030000
C        0.44920000      -0.62920000       1.20680000
N        1.19700000       0.03980000       1.99590000
C        1.88230000      -0.62380000       3.09620000
C        3.33250000      -0.46160000       2.99400000
C        4.52490000      -0.34040000       2.91660000
C        0.22820000      -2.07060000       1.29180000
N        0.06910000      -3.21350000       1.36570000
H        0.96080000       1.58980000      -0.41100000
H       -0.75490000       1.64780000      -0.90760000
H       -0.28740000       1.97540000       0.77950000
H       -0.64700000      -0.63490000      -0.50700000
H        1.54210000      -0.16110000       4.03290000
H        1.64580000      -1.69670000       3.17390000
H        5.57920000      -0.23380000       2.84940000
