21
Properties=species:S:1:pos:R:3 gdb_104796=T pbc="F F F"
O        0.24460000       1.33110000      -0.28540000
C        0.10950000      -0.01350000       0.13570000
C       -1.33040000      -0.53030000       0.03810000
C       -2.21030000       0.08090000       1.12390000
O       -2.24550000       1.50090000       0.95180000
C       -2.01810000      -0.44480000      -1.37160000
C       -2.26700000      -1.95800000      -1.32810000
C       -0.96160000      -2.68960000      -1.22360000
C       -1.53730000      -2.05980000       0.01510000
H       -0.45760000       1.82400000       0.15960000
H        0.76450000      -0.60440000      -0.51220000
H        0.47400000      -0.15490000       1.16980000
H       -3.22540000      -0.33880000       1.06100000
H       -1.80000000      -0.17690000       2.11310000
H       -2.70260000       1.89250000       1.70140000
H       -2.92430000       0.16330000      -1.35130000
H       -1.38050000      -0.08790000      -2.18500000
H       -3.17640000      -2.45610000      -1.64120000
H       -1.02790000      -3.77270000      -1.25000000
H       -0.06830000      -2.29170000      -1.69850000
H       -1.78810000      -2.65680000       0.88560000
