18
Properties=species:S:1:pos:R:3 gdb_82697=T pbc="F F F"
C       -0.01840000       1.64110000      -0.05890000
C        0.09680000       0.12510000       0.02520000
C        1.13760000      -0.66210000      -0.80400000
C        2.53650000      -0.13370000      -0.42010000
C        2.22220000      -0.75870000       0.92500000
N        1.24780000      -1.72130000       0.34460000
C        0.75530000      -0.56310000       1.21420000
C        0.19650000      -0.83320000       2.55790000
O        0.77850000      -1.44110000       3.42340000
H        0.93530000       2.13870000       0.13680000
H       -0.36600000       1.95100000      -1.05040000
H       -0.74150000       2.01490000       0.67390000
H       -0.88300000      -0.33960000      -0.13660000
H        0.91300000      -0.99890000      -1.81400000
H        3.31930000      -0.70140000      -0.92910000
H        2.74780000       0.93640000      -0.49650000
H        2.88810000      -1.05530000       1.72650000
H       -0.82870000      -0.43120000       2.72380000
