18
Properties=species:S:1:pos:R:3 gdb_69727=T pbc="F F F"
C        0.05120000       1.48770000       0.03050000
C       -0.07370000      -0.01400000       0.00070000
C       -0.64530000      -0.78270000       1.14240000
N        0.81150000      -0.82360000       0.88890000
C        1.20260000      -1.89450000      -0.02830000
C        0.08520000      -2.27940000      -1.05970000
O        1.09000000      -2.49020000      -2.10730000
C        1.52110000      -1.27460000      -1.42310000
C        0.03900000      -0.74970000      -1.32290000
H        0.91080000       1.82280000      -0.56050000
H       -0.84610000       1.96340000      -0.38100000
H        0.18820000       1.84200000       1.05540000
H       -0.92200000      -0.24820000       2.04690000
H       -1.23400000      -1.67630000       0.95360000
H        1.84560000      -2.66880000       0.38660000
H       -0.72750000      -3.00210000      -0.99620000
H        2.42100000      -0.77310000      -1.77900000
H       -0.45650000      -0.37260000      -2.21600000
