18
Properties=species:S:1:pos:R:3 gdb_50734=T pbc="F F F"
O       -0.55340000       0.75920000      -0.74130000
C        0.11410000       1.04250000       0.22030000
C        1.34170000       1.94510000       0.14900000
C        1.49420000       2.63750000      -1.20950000
C        2.53610000       3.75310000      -1.12910000
C        2.10430000       4.79230000      -0.09680000
N        1.77010000       4.15340000       1.17090000
C        1.35610000       2.87190000       1.37450000
O        1.03860000       2.46070000       2.47780000
H       -0.11110000       0.66220000       1.23440000
H        2.19500000       1.26960000       0.32470000
H        1.75700000       1.89890000      -1.97140000
H        0.52530000       3.05150000      -1.51200000
H        3.51250000       3.33980000      -0.84710000
H        2.65900000       4.24350000      -2.09960000
H        2.90590000       5.51670000       0.08270000
H        1.24080000       5.35580000      -0.48140000
H        1.72810000       4.72530000       2.00270000
