18
Properties=species:S:1:pos:R:3 gdb_36701=T pbc="F F F"
N        0.23980000      -0.14070000       1.41490000
C        0.12170000       0.56910000       0.51090000
C       -0.03290000       1.47500000      -0.64770000
O        1.11270000       2.22600000      -0.94090000
C        1.38840000       3.28360000      -0.03110000
C        2.19690000       2.98020000       1.28060000
C        3.25320000       3.98490000       0.80720000
C        3.82160000       3.52740000      -0.50070000
C        2.48420000       4.22000000      -0.50280000
H       -0.25200000       0.86520000      -1.52980000
H       -0.90740000       2.11810000      -0.45960000
H        0.45540000       3.81810000       0.19410000
H        1.65560000       3.27780000       2.18060000
H        2.54270000       1.95020000       1.39810000
H        3.74390000       4.72080000       1.43060000
H        4.63480000       4.12610000      -0.89770000
H        3.89060000       2.46770000      -0.72970000
H        2.31800000       5.13770000      -1.05290000
