15
Properties=species:S:1:pos:R:3 gdb_29406=T pbc="F F F"
C       -0.00950000       1.51510000       0.07810000
C       -0.00180000       0.02880000      -0.02890000
C       -0.04750000      -0.75900000      -1.12750000
O       -0.01650000      -2.07850000      -0.71710000
C        0.04670000      -1.99040000       0.61680000
N        0.09320000      -3.14080000       1.37920000
C        0.08490000      -4.45800000       0.96440000
O        0.03400000      -4.84410000      -0.17410000
N        0.05920000      -0.78840000       1.10330000
H        0.89400000       1.87440000       0.58170000
H       -0.06130000       1.97900000      -0.91000000
H       -0.86640000       1.85910000       0.66680000
H       -0.09950000      -0.59660000      -2.18940000
H        0.13890000      -2.95610000       2.37060000
H        0.13280000      -5.13050000       1.84260000
