21
Properties=species:S:1:pos:R:3 gdb_93917=T pbc="F F F"
C        0.41450000       1.33320000       0.05740000
C       -0.15570000      -0.07640000       0.05220000
O       -0.58550000      -0.58380000       1.06240000
C       -0.15120000      -0.79880000      -1.29370000
C        1.28270000      -1.00660000      -1.86450000
C        1.12290000      -2.24200000      -2.76080000
C        0.22440000      -3.16600000      -1.92150000
O        0.96250000      -3.78110000      -0.86650000
C       -0.78940000      -2.21110000      -1.26360000
H        1.47510000       1.31710000      -0.21670000
H       -0.09520000       1.95780000      -0.68470000
H        0.30320000       1.77170000       1.04970000
H       -0.69690000      -0.15210000      -1.99380000
H        1.66350000      -0.12990000      -2.39420000
H        1.97700000      -1.24060000      -1.05070000
H        0.60720000      -1.97370000      -3.69180000
H        2.07430000      -2.71150000      -3.03420000
H       -0.27040000      -3.93280000      -2.53380000
H        1.63780000      -4.33970000      -1.26510000
H       -0.98300000      -2.52410000      -0.23630000
H       -1.73920000      -2.22260000      -1.80410000
