10
Properties=species:S:1:pos:R:3 gdb_130830=T pbc="F F F"
O       -0.05150000       0.00120000       0.00220000
C       -0.03160000       1.19870000       0.00830000
C        1.31960000       1.95950000      -0.00120000
O        2.37350000       1.38260000      -0.01430000
C        1.24090000       3.44680000       0.00870000
N        0.12990000       4.13510000       0.02340000
O        0.49980000       5.41300000       0.02780000
N        1.93050000       5.46540000       0.01430000
N        2.34370000       4.29090000       0.00320000
H       -0.94630000       1.82220000       0.02100000
