19
Properties=species:S:1:pos:R:3 gdb_81392=T pbc="F F F"
C       -0.18130000       1.53930000       0.02460000
C        0.01800000       0.02890000       0.02160000
C        1.13380000      -0.59440000      -0.88060000
C        2.14780000      -0.23160000       0.23030000
C        0.93190000      -0.58400000       1.13910000
C        0.76910000      -2.09050000       0.81630000
N        0.99710000      -2.05660000      -0.66700000
C        1.73770000      -2.95510000       1.50240000
N        2.48830000      -3.62570000       2.07010000
H        0.75030000       2.09760000       0.14650000
H       -0.64050000       1.86500000      -0.91500000
H       -0.85230000       1.83700000       0.83750000
H       -0.95870000      -0.46080000      -0.08700000
H        1.27630000      -0.33170000      -1.92870000
H        3.04300000      -0.85110000       0.30700000
H        2.41000000       0.82370000       0.25960000
H        0.86540000      -0.29650000       2.18770000
H       -0.23440000      -2.44600000       1.07540000
H        0.17220000      -2.41030000      -1.14200000
