19
Properties=species:S:1:pos:R:3 gdb_57516=T pbc="F F F"
C        0.07930000       1.60030000       0.11980000
C        0.04850000       0.07260000       0.02940000
C        0.50840000      -0.59750000       1.32640000
C       -1.33500000      -0.42600000      -0.38690000
O        0.90350000      -0.37550000      -1.09080000
C        2.20440000      -0.13320000      -1.11290000
O        2.87680000       0.44810000      -0.29330000
C        2.87030000      -0.69810000      -2.37900000
O        2.30080000      -1.28850000      -3.25200000
H        1.06650000       1.96130000       0.40900000
H       -0.19630000       2.04550000      -0.84080000
H       -0.64740000       1.93180000       0.86770000
H       -0.20010000      -0.36020000       2.12580000
H        0.53250000      -1.68470000       1.20690000
H        1.49820000      -0.25040000       1.62350000
H       -1.63510000       0.01780000      -1.33980000
H       -1.33630000      -1.51350000      -0.49880000
H       -2.07330000      -0.15310000       0.37240000
H        3.95900000      -0.48660000      -2.38140000
