18
Properties=species:S:1:pos:R:3 gdb_37187=T pbc="F F F"
C        0.08690000       1.53620000       0.16650000
O        1.51900000       1.43040000      -0.11670000
C        1.28560000       0.21490000      -0.89980000
C        1.55580000      -1.22110000      -0.40980000
C        0.78790000      -0.83560000       0.88590000
C       -0.04670000       0.04680000      -0.14180000
C       -0.80370000      -1.03260000      -0.89900000
N       -0.28480000      -1.24060000      -2.27420000
C        0.36310000      -1.94210000      -1.13830000
H       -0.10450000       1.87040000       1.19120000
H       -0.40550000       2.20670000      -0.54960000
H        1.34760000       0.43070000      -1.96360000
H        2.51910000      -1.73400000      -0.42060000
H        0.24500000      -1.63390000       1.39780000
H        1.37030000      -0.24100000       1.58820000
H       -1.78460000      -1.40020000      -0.62010000
H       -0.88960000      -1.90410000      -2.75450000
H        0.28360000      -3.02080000      -1.06150000
