21
Properties=species:S:1:pos:R:3 gdb_89370=T pbc="F F F"
C       -0.16150000       1.54150000      -0.01210000
C        0.05380000       0.02980000      -0.00660000
C        0.92040000      -0.51260000      -1.18650000
C        2.02000000      -1.34720000      -0.46410000
O        2.65280000      -2.22880000      -1.35530000
C        1.20680000      -1.93080000       0.72110000
C        0.81620000      -0.53380000       1.25330000
C        2.18440000       0.13160000       1.30310000
C        2.89810000      -0.34610000       0.27960000
H        0.79390000       2.07620000      -0.00300000
H       -0.70990000       1.85580000      -0.90650000
H       -0.73890000       1.86460000       0.86180000
H       -0.92700000      -0.45880000      -0.03120000
H        0.34880000      -1.16410000      -1.85380000
H        1.35810000       0.28600000      -1.79130000
H        3.33890000      -2.69870000      -0.86950000
H        0.35540000      -2.53770000       0.39660000
H        1.82850000      -2.49890000       1.41920000
H        0.23060000      -0.49080000       2.17290000
H        2.46220000       0.92680000       1.98380000
H        3.87140000      -0.02610000      -0.07340000
