15
Properties=species:S:1:pos:R:3 gdb_43457=T pbc="F F F"
N       -0.09630000       1.24840000       0.00650000
C       -0.05100000      -0.00820000       0.00250000
O        1.09080000      -0.77890000      -0.00430000
C        0.76080000      -2.13990000      -0.00350000
O        1.58250000      -3.00690000       0.00730000
N       -0.59840000      -2.21890000      -0.02090000
C       -1.22250000      -0.93120000       0.00450000
C       -2.47470000      -0.60610000       0.77860000
C       -2.49230000      -0.58690000      -0.73010000
H        0.83720000       1.65830000       0.00460000
H       -1.06640000      -3.10650000       0.02970000
H       -2.97070000      -1.42690000       1.28580000
H       -2.48200000       0.34150000       1.30490000
H       -2.51180000       0.37400000      -1.23130000
H       -2.99950000      -1.39520000      -1.24600000
