19
Properties=species:S:1:pos:R:3 gdb_41923=T pbc="F F F"
C        0.06800000       1.50100000       0.28790000
O        1.16920000       2.19710000      -0.29600000
C        2.19710000       1.45470000      -0.91350000
C        2.48540000       0.12800000      -0.20500000
C        1.24030000      -0.73130000      -0.28440000
C       -0.04120000       0.03470000      -0.07840000
C        0.32330000      -0.46200000      -1.45870000
C        0.75630000       0.49110000      -2.56150000
O        1.94500000       1.22270000      -2.28280000
H        0.14100000       1.58930000       1.38270000
H       -0.83900000       2.03880000      -0.01770000
H        3.07050000       2.11190000      -0.90670000
H        3.33700000      -0.34670000      -0.70230000
H        2.76630000       0.31760000       0.83800000
H        1.31540000      -1.74620000       0.09300000
H       -0.86580000      -0.46800000       0.41930000
H       -0.26610000      -1.29910000      -1.82070000
H        0.96290000      -0.07710000      -3.47520000
H       -0.05980000       1.19300000      -2.79170000
