17
Properties=species:S:1:pos:R:3 gdb_68493=T pbc="F F F"
C        0.00870000       1.50210000      -0.00260000
C       -0.01130000       0.00350000      -0.03720000
C        0.52340000      -0.96750000      -1.15670000
C       -0.00180000      -1.95610000      -0.06250000
C        0.66470000      -0.99850000       1.00070000
C        2.10800000      -0.98010000       1.11080000
C        3.30300000      -0.94760000       1.24510000
C       -1.18910000      -0.98560000       0.02310000
O       -2.37980000      -0.98550000       0.07070000
H        1.03580000       1.88060000      -0.00050000
H       -0.50650000       1.91540000      -0.87550000
H       -0.49610000       1.87790000       0.89310000
H        0.00110000      -0.95760000      -2.11490000
H        1.60720000      -0.96110000      -1.27660000
H        0.02480000      -3.04250000      -0.06760000
H        0.20150000      -1.01450000       1.99130000
H        4.35840000      -0.92790000       1.36250000
