12
Properties=species:S:1:pos:R:3 gdb_231=T pbc="F F F"
C       -0.03620000       1.45100000      -0.10290000
C       -0.01090000      -0.00110000      -0.07160000
C        0.02890000      -1.20730000      -0.04800000
C        0.07480000      -2.65690000      -0.01940000
C       -1.26530000      -3.34690000       0.14370000
O        1.11930000      -3.26540000      -0.11980000
H        0.56600000       1.86610000       0.71260000
H        0.38270000       1.82460000      -1.04370000
H       -1.05480000       1.84050000      -0.00590000
H       -1.74400000      -3.02300000       1.07420000
H       -1.93570000      -3.06400000      -0.67500000
H       -1.12170000      -4.42830000       0.15330000
