22
Properties=species:S:1:pos:R:3 gdb_101085=T pbc="F F F"
C        0.20820000       1.39250000      -0.05950000
C       -0.03180000      -0.09480000      -0.33650000
C       -1.42510000      -0.61120000       0.09460000
C       -2.55720000       0.01790000      -0.72600000
C       -1.42440000      -2.13900000       0.08810000
C       -2.55210000      -2.96780000      -0.45590000
N       -1.27730000      -2.92660000      -1.16370000
C       -0.68490000      -2.79090000       1.21700000
O       -0.30950000      -2.22460000       2.21290000
H        1.23240000       1.67290000      -0.32380000
H       -0.46330000       2.03810000      -0.63390000
H        0.06570000       1.62080000       1.00230000
H        0.11420000      -0.29880000      -1.40630000
H        0.73090000      -0.67460000       0.19330000
H       -1.56190000      -0.32710000       1.14510000
H       -2.51790000      -0.28510000      -1.78040000
H       -3.54150000      -0.25020000      -0.33220000
H       -2.48710000       1.10800000      -0.70570000
H       -2.79140000      -3.92370000       0.00370000
H       -3.40560000      -2.43750000      -0.86430000
H       -1.33900000      -2.29580000      -1.96010000
H       -0.51630000      -3.87920000       1.05790000
