20
Properties=species:S:1:pos:R:3 gdb_107685=T pbc="F F F"
O        0.13310000       1.25520000      -0.51270000
C        0.03280000       0.05840000       0.24090000
C       -1.37810000      -0.49270000       0.19750000
C       -2.43180000       0.32540000       0.92490000
C       -3.76530000      -0.41760000       1.03230000
O       -3.57580000      -1.71940000       1.55240000
C       -2.87300000      -2.56790000       0.66260000
C       -1.61140000      -1.95570000       0.06170000
N       -1.69870000      -1.07300000      -1.12350000
H       -0.13790000       1.02180000      -1.40890000
H        0.73290000      -0.70600000      -0.12750000
H        0.31780000       0.31410000       1.26720000
H       -2.06830000       0.53170000       1.93850000
H       -2.56310000       1.29390000       0.42870000
H       -4.43640000       0.09850000       1.72410000
H       -4.27960000      -0.46430000       0.05510000
H       -2.60700000      -3.45370000       1.24660000
H       -3.54290000      -2.89880000      -0.15110000
H       -0.75440000      -2.62510000       0.02930000
H       -2.67620000      -0.91240000      -1.36000000
