21
Properties=species:S:1:pos:R:3 gdb_109126=T pbc="F F F"
C        0.01430000       1.63540000       0.18590000
C        0.02440000       0.11710000      -0.06630000
C       -1.35070000      -0.50890000      -0.06350000
C       -1.93910000      -0.92580000      -1.18770000
C       -3.28950000      -1.59000000      -1.25880000
C       -3.95210000      -1.79800000       0.09850000
O       -4.73420000      -2.69690000       0.30030000
C       -3.56180000      -0.78470000       1.15850000
C       -2.03180000      -0.66480000       1.27960000
H        1.03340000       2.03430000       0.18700000
H       -0.55330000       2.15440000      -0.59270000
H       -0.43760000       1.88550000       1.15110000
H        0.51110000      -0.08320000      -1.02690000
H        0.64330000      -0.36580000       0.70300000
H       -1.41500000      -0.81230000      -2.13490000
H       -3.97930000      -0.98650000      -1.87050000
H       -3.23640000      -2.56330000      -1.76070000
H       -3.96430000       0.18900000       0.84620000
H       -4.03230000      -1.06080000       2.10480000
H       -1.62810000      -1.55320000       1.78710000
H       -1.78570000       0.17980000       1.93300000
