14
Properties=species:S:1:pos:R:3 gdb_128985=T pbc="F F F"
N        0.02470000       1.25740000       0.00910000
N        1.20620000       1.85160000       0.00100000
C        2.05210000       0.79860000      -0.01330000
C        3.46310000       0.75450000      -0.02740000
C        4.04640000      -0.48880000      -0.04030000
C        3.27310000      -1.68740000      -0.03970000
C        1.89990000      -1.66820000      -0.02620000
C        1.27820000      -0.40080000      -0.01270000
N       -0.02980000      -0.06400000       0.00200000
H       -0.82320000       1.80450000       0.02060000
H        4.04780000       1.66670000      -0.02780000
H        5.12800000      -0.57230000      -0.05130000
H        3.79490000      -2.63840000      -0.05030000
H        1.30970000      -2.57690000      -0.02570000
