21
Properties=species:S:1:pos:R:3 gdb_95323=T pbc="F F F"
O        0.08290000       1.42090000      -0.18690000
C        0.04510000       0.01010000      -0.00630000
C        0.78820000      -0.41670000       1.26610000
O        0.02000000      -0.17910000       2.44050000
C       -1.31390000      -0.70520000       2.37280000
C       -1.36350000      -2.16550000       1.86880000
C       -1.43290000      -2.04720000       0.31380000
C       -1.40650000      -0.52220000       0.03230000
C       -2.09600000       0.04560000       1.28750000
H       -0.07850000       1.82550000       0.67240000
H        0.56600000      -0.40900000      -0.87550000
H        1.07920000      -1.47480000       1.19700000
H        1.70360000       0.17220000       1.37390000
H       -1.71280000      -0.58730000       3.38250000
H       -0.50600000      -2.74130000       2.22570000
H       -2.25970000      -2.65120000       2.26500000
H       -0.61240000      -2.57400000      -0.18380000
H       -2.36250000      -2.48040000      -0.06650000
H       -1.90880000      -0.25310000      -0.89970000
H       -3.15760000      -0.22570000       1.31080000
H       -2.02460000       1.13150000       1.38660000
