22
Properties=species:S:1:pos:R:3 gdb_6989=T pbc="F F F"
C       -0.29220000       1.46140000      -0.05520000
C        0.00940000      -0.02580000       0.02440000
O        0.86120000      -0.37370000      -1.06330000
C        1.48020000      -1.62740000      -0.77700000
C        1.24570000      -1.91020000       0.72360000
C        0.74130000      -0.55740000       1.28470000
C        1.93190000       0.33820000       1.66740000
C       -0.20030000      -0.73330000       2.47900000
H        0.62530000       2.05380000      -0.02230000
H       -0.80680000       1.68780000      -0.99310000
H       -0.94150000       1.76920000       0.77070000
H       -0.94370000      -0.58080000      -0.06200000
H        1.04870000      -2.41650000      -1.40820000
H        2.54310000      -1.54320000      -1.03020000
H        0.47610000      -2.67820000       0.85280000
H        2.14770000      -2.26340000       1.23070000
H        2.58180000       0.52470000       0.80740000
H        1.59980000       1.30680000       2.05410000
H        2.53210000      -0.13940000       2.44930000
H        0.31800000      -1.20240000       3.32220000
H       -0.58510000       0.23140000       2.82830000
H       -1.05790000      -1.36430000       2.22110000
