18
Properties=species:S:1:pos:R:3 gdb_98544=T pbc="F F F"
C       -0.18040000       1.45620000      -0.08430000
N       -0.16380000       0.01400000      -0.23290000
C        0.84680000      -0.64470000      -0.87310000
O        1.80540000      -0.07480000      -1.37230000
C        0.70060000      -2.12320000      -0.93520000
C        1.92700000      -3.00660000      -1.13030000
C        0.86700000      -3.01530000      -2.16470000
O       -0.22600000      -3.85430000      -1.78990000
C       -0.50530000      -3.01560000      -0.63970000
H       -0.15110000       1.75030000       0.97100000
H        0.70750000       1.84190000      -0.58600000
H       -1.07260000       1.89420000      -0.54560000
H       -0.91020000      -0.52100000       0.17760000
H        2.81140000      -2.42760000      -1.37250000
H        2.06820000      -3.87870000      -0.49820000
H        0.98670000      -2.75980000      -3.21070000
H       -0.50230000      -3.58000000       0.30050000
H       -1.47340000      -2.51490000      -0.76870000
