20
Properties=species:S:1:pos:R:3 gdb_11039=T pbc="F F F"
C        0.07370000       1.58100000       0.03430000
C        0.03090000       0.05200000       0.01030000
C        0.76550000      -0.57800000      -1.20320000
C        1.24700000      -1.96900000      -0.73410000
C        1.43440000      -1.81430000       0.76910000
C        1.71300000      -3.00920000       1.63850000
O        2.14610000      -0.60480000       1.10700000
C        0.71040000      -0.61010000       1.19700000
H        1.10890000       1.93040000       0.10410000
H       -0.36670000       2.00290000      -0.87510000
H       -0.47840000       1.98480000       0.88980000
H       -1.01810000      -0.27840000       0.01490000
H        0.12940000      -0.62870000      -2.09070000
H        1.63000000       0.04170000      -1.45520000
H        0.48640000      -2.73910000      -0.91540000
H        2.16310000      -2.29270000      -1.23960000
H        2.66200000      -3.47980000       1.35800000
H        1.77860000      -2.71540000       2.68910000
H        0.92370000      -3.76120000       1.53220000
H        0.30920000      -0.49290000       2.20250000
