16
Properties=species:S:1:pos:R:3 gdb_97347=T pbc="F F F"
C        0.35330000       1.82460000       0.88460000
N        0.09910000       0.43040000       1.18720000
C        0.13770000      -0.39130000       0.22750000
N       -0.09740000      -1.74220000       0.45440000
C       -0.06790000      -2.68630000      -0.56220000
O        0.16150000      -2.42010000      -1.71360000
N       -0.33760000      -3.98080000      -0.07940000
C       -0.38690000      -5.15750000      -0.82320000
O       -0.20890000      -5.27250000      -2.00210000
H        1.20880000       2.17650000       1.47240000
H        0.55760000       2.01900000      -0.17950000
H       -0.50960000       2.42820000       1.18840000
H        0.34450000      -0.16470000      -0.82190000
H       -0.29260000      -1.98990000       1.41340000
H       -0.51700000      -4.09160000       0.90760000
H       -0.62250000      -6.00940000      -0.15280000
