17
Properties=species:S:1:pos:R:3 gdb_29743=T pbc="F F F"
C        0.03250000       1.43170000       0.02950000
N        0.01540000      -0.02370000       0.00310000
C       -0.02110000      -0.80900000      -1.12090000
C       -0.04980000      -0.28340000      -2.51600000
C       -0.02390000      -2.11150000      -0.65050000
N        0.00900000      -2.14640000       0.70270000
C        0.03210000      -0.87930000       1.09200000
C        0.07170000      -0.40230000       2.47350000
O        0.08750000      -1.11190000       3.45220000
H        0.94190000       1.80450000       0.50810000
H        0.00390000       1.80720000      -0.99320000
H       -0.83600000       1.82380000       0.56490000
H        0.83500000       0.31840000      -2.75500000
H       -0.07460000      -1.12290000      -3.21410000
H       -0.93380000       0.33500000      -2.71230000
H       -0.04840000      -3.01410000      -1.24440000
H        0.08700000       0.70660000       2.57420000
