16
Properties=species:S:1:pos:R:3 gdb_9097=T pbc="F F F"
C       -0.27290000       1.36400000       0.01320000
C       -0.03260000      -0.14460000       0.00260000
O        0.64920000      -0.62090000      -1.14430000
C       -0.10580000      -0.64880000      -2.33020000
C        0.68840000      -1.41520000      -3.37630000
O        0.33600000      -1.53550000      -4.51840000
C        0.80650000      -0.59830000       1.19540000
O        0.72600000      -0.11970000       2.29470000
H        0.66240000       1.89500000      -0.18590000
H       -1.01330000       1.66080000      -0.73380000
H       -0.63430000       1.65730000       1.00150000
H       -1.00160000      -0.67100000       0.09700000
H       -1.07300000      -1.16000000      -2.18410000
H       -0.32530000       0.35590000      -2.72070000
H        1.62750000      -1.86300000      -2.98340000
H        1.49640000      -1.43610000       0.95470000
