21
Properties=species:S:1:pos:R:3 gdb_101170=T pbc="F F F"
C        0.14580000       1.55390000       0.02610000
C        0.35000000       0.03740000       0.04170000
C        0.60530000      -0.51980000       1.44880000
O       -0.43470000      -0.17010000       2.36200000
C        0.81690000      -2.02330000       1.41630000
C        2.11410000      -2.63800000       0.91770000
O        3.18720000      -1.81280000       0.57430000
C        1.74380000      -2.72380000       2.38010000
O        2.49070000      -1.89010000       3.23300000
H        1.04550000       2.07330000       0.37440000
H       -0.07680000       1.91310000      -0.98330000
H       -0.67660000       1.84220000       0.68600000
H       -0.53210000      -0.46530000      -0.38300000
H        1.20150000      -0.24180000      -0.58870000
H        1.49470000      -0.03750000       1.86320000
H       -1.25170000      -0.56310000       2.03490000
H       -0.08400000      -2.58250000       1.16620000
H        2.07030000      -3.52290000       0.28990000
H        3.48140000      -1.40210000       1.40000000
H        1.43000000      -3.66690000       2.82240000
H        3.21630000      -2.41330000       3.59120000
