15
Properties=species:S:1:pos:R:3 gdb_43339=T pbc="F F F"
O        0.01710000       0.00160000       0.10300000
C       -0.03770000       1.21430000       0.02420000
C       -1.33340000       1.93410000      -0.05170000
C       -1.39630000       3.27070000      -0.03960000
C       -0.13930000       4.07060000       0.14960000
O        0.43970000       3.80630000       1.47990000
C        1.56420000       3.20610000       0.86660000
C        1.12430000       3.50020000      -0.52780000
C        1.19900000       2.05260000      -0.07920000
H       -2.21450000       1.30580000      -0.13220000
H       -2.34710000       3.79210000      -0.10260000
H       -0.28150000       5.14490000       0.02170000
H        2.51410000       3.25080000       1.38450000
H        1.63360000       3.90190000      -1.39290000
H        2.06890000       1.49830000      -0.41770000
