17
Properties=species:S:1:pos:R:3 gdb_3359=T pbc="F F F"
C       -0.04900000       1.44280000      -0.35190000
O        1.16120000       1.71930000       0.38410000
C        1.37770000       0.30680000       0.63840000
C        1.38580000      -0.08240000       2.12710000
C        0.16110000      -1.00930000       2.28670000
C       -0.86800000      -0.46220000       1.27570000
C       -0.01850000      -0.04190000       0.05960000
H       -0.89890000       2.03700000       0.00710000
H        0.08320000       1.62300000      -1.42700000
H        2.25220000      -0.05670000       0.08610000
H        2.31870000      -0.55810000       2.44150000
H        1.26270000       0.83310000       2.71460000
H        0.43570000      -2.03600000       2.01460000
H       -0.22140000      -1.04160000       3.31100000
H       -1.64320000      -1.19110000       1.02380000
H       -1.37410000       0.41260000       1.70120000
H       -0.05580000      -0.76710000      -0.75490000
