14
Properties=species:S:1:pos:R:3 gdb_110173=T pbc="F F F"
C       -0.06110000       1.37880000      -0.06930000
O        0.37480000       0.02600000       0.03620000
C        0.72740000      -0.53300000      -1.18040000
C        1.14770000      -2.02170000      -1.08000000
O        0.08410000      -2.39700000      -2.01040000
C       -0.40850000      -1.10680000      -2.06240000
O       -1.39040000      -0.72480000      -2.60310000
C        2.47010000      -2.38740000      -1.56740000
N        3.53010000      -2.65780000      -1.93780000
H        0.73030000       2.01340000      -0.49230000
H       -0.95960000       1.46080000      -0.69130000
H       -0.28690000       1.71070000       0.94490000
H        1.42950000       0.09020000      -1.75270000
H        0.96100000      -2.44030000      -0.08890000
