19
Properties=species:S:1:pos:R:3 gdb_8390=T pbc="F F F"
C        0.13920000       1.43360000      -0.46060000
N        0.22500000       0.00170000      -0.21080000
C        1.55940000      -0.54060000       0.05950000
C        0.54250000      -0.42700000       1.13580000
C        0.67120000       0.40460000       2.42290000
C        0.37680000      -0.90920000       3.20820000
O       -0.43590000      -0.86650000       4.35170000
C       -0.16230000      -1.55270000       1.89710000
H        0.86250000       2.03240000       0.11680000
H        0.31310000       1.62230000      -1.52460000
H       -0.86830000       1.78630000      -0.21610000
H        1.78170000      -1.50110000      -0.39950000
H        2.39710000       0.15670000       0.08780000
H        1.60850000       0.92550000       2.63020000
H       -0.15870000       1.11410000       2.53200000
H        1.30670000      -1.38730000       3.52700000
H       -1.28280000      -0.48170000       4.10170000
H       -1.25260000      -1.45600000       1.82640000
H        0.11560000      -2.58600000       1.67760000
