20
Properties=species:S:1:pos:R:3 gdb_32426=T pbc="F F F"
C        0.01630000       1.57460000       0.11420000
C       -0.07730000       0.05040000      -0.07510000
C        0.70660000      -0.45790000      -1.24900000
C        0.21270000      -0.85520000      -2.45100000
O        1.21140000      -1.24450000      -3.29060000
C        2.38550000      -1.10420000      -2.59250000
N        3.58560000      -1.44990000      -3.22120000
C        2.14000000      -0.63090000      -1.33920000
C        3.16430000      -0.38120000      -0.27780000
H        1.05160000       1.89400000       0.26900000
H       -0.36340000       2.09860000      -0.76830000
H       -0.56780000       1.89770000       0.98210000
H        0.26920000      -0.44560000       0.84080000
H       -1.12920000      -0.23370000      -0.19540000
H       -0.78940000      -0.93620000      -2.84120000
H        3.48670000      -2.29880000      -3.76840000
H        3.92470000      -0.72080000      -3.84220000
H        3.30300000       0.68830000      -0.07720000
H        2.88080000      -0.84870000       0.67250000
H        4.12940000      -0.79120000      -0.58640000
