16
Properties=species:S:1:pos:R:3 gdb_27737=T pbc="F F F"
C       -0.04220000       1.51440000       0.06610000
C       -0.00690000       0.02600000      -0.04370000
C       -0.04410000      -0.77640000      -1.17940000
C        0.01570000      -2.11320000      -0.74040000
O        0.00700000      -3.21820000      -1.48810000
C        0.08890000      -2.11030000       0.66190000
N        0.07250000      -0.77300000       1.05360000
C        0.16320000      -3.27530000       1.46430000
O        0.16890000      -4.41050000       0.97370000
H        0.85770000       1.90620000       0.55470000
H       -0.10590000       1.96270000      -0.92700000
H       -0.90720000       1.85760000       0.64580000
H       -0.10710000      -0.42900000      -2.19830000
H        0.06110000      -3.96400000      -0.84920000
H        0.11340000      -0.44720000       2.00390000
H        0.21710000      -3.14240000       2.56490000
