16
Properties=species:S:1:pos:R:3 gdb_42424=T pbc="F F F"
O        0.06730000       0.03590000      -0.59440000
C        0.17510000       1.21830000      -0.23770000
N        1.26630000       1.88840000       0.12790000
C        2.42690000       1.04080000       0.07580000
C        2.80270000       0.75420000      -1.41370000
N        3.43370000       2.15720000      -1.39950000
H        4.21120000       2.38680000      -2.01580000
H        2.65100000       2.81550000      -1.49080000
C        3.65110000       1.98780000       0.10300000
C       -1.04430000       2.06850000      -0.22320000
N       -2.01880000       2.69130000      -0.24820000
H        2.43410000       0.17470000       0.74320000
H        3.60280000       0.02910000      -1.57650000
H        1.98900000       0.64300000      -2.12410000
H        3.55160000       2.92120000       0.65390000
H        4.61780000       1.50520000       0.25440000
