20
Properties=species:S:1:pos:R:3 gdb_117957=T pbc="F F F"
C       -0.04810000       1.45480000       0.07000000
N       -0.11820000       0.00480000       0.09770000
C       -1.27440000      -0.68260000      -0.04630000
O       -2.36840000      -0.15540000      -0.20100000
C       -1.17500000      -2.21860000      -0.01640000
O       -2.47660000      -2.73920000       0.06310000
C       -0.44380000      -2.75730000      -1.25960000
C       -0.35120000      -4.28510000      -1.25540000
O        0.34860000      -4.78780000      -2.38400000
H        0.59050000       1.80500000      -0.74790000
H       -1.06070000       1.82860000      -0.08220000
H        0.34110000       1.84970000       1.01450000
H        0.73100000      -0.51700000       0.24110000
H       -0.61090000      -2.51430000       0.88420000
H       -3.05310000      -1.96410000      -0.06050000
H       -0.99100000      -2.42300000      -2.15110000
H        0.56920000      -2.34180000      -1.32480000
H        0.21820000      -4.62040000      -0.38040000
H       -1.35840000      -4.71260000      -1.17310000
H       -0.20250000      -4.64110000      -3.15910000
