11
Properties=species:S:1:pos:R:3 gdb_130530=T pbc="F F F"
O       -0.12080000       1.16320000       0.00950000
N        1.06120000       2.10050000       0.00320000
N        2.19590000       1.61670000      -0.01020000
C        2.36230000       0.25630000      -0.01910000
C        3.45560000      -0.55770000      -0.03400000
C        2.89040000      -1.89310000      -0.03570000
N        1.56950000      -1.94080000      -0.02340000
C        1.20180000      -0.61800000      -0.01270000
N       -0.01860000      -0.17430000       0.00130000
H        4.50100000      -0.28920000      -0.04270000
H        3.47020000      -2.80950000      -0.04620000
