16
Properties=species:S:1:pos:R:3 gdb_110193=T pbc="F F F"
C        0.07450000       1.43350000      -0.45650000
O        0.49740000       0.10270000      -0.18220000
C        0.66190000      -0.66610000      -1.32530000
C        1.05700000      -2.13950000      -1.02950000
O       -0.12620000      -2.60150000      -1.75050000
C       -0.57700000      -1.30840000      -1.95080000
N       -1.63930000      -0.87240000      -2.44560000
C        2.33370000      -2.63930000      -1.66470000
O        3.37520000      -2.73300000      -1.07220000
H        0.80850000       1.95780000      -1.08580000
H       -0.90020000       1.44610000      -0.95700000
H        0.00090000       1.94060000       0.50700000
H        1.30170000      -0.16780000      -2.07060000
H        1.01070000      -2.38060000       0.03430000
H       -2.26830000      -1.62470000      -2.73270000
H        2.23080000      -2.89240000      -2.74360000
