19
Properties=species:S:1:pos:R:3 gdb_112032=T pbc="F F F"
O       -0.05910000       1.48780000      -0.04240000
C        0.05800000       0.07170000      -0.07070000
C       -1.35980000      -0.49820000      -0.00790000
C       -2.19510000      -0.20060000      -1.23800000
C       -2.85410000      -1.26470000      -1.69720000
C       -2.56750000      -2.49400000      -0.87790000
O       -1.66650000      -3.43490000      -1.52210000
C       -0.55320000      -2.94720000      -0.74540000
C       -1.46640000      -2.03380000       0.11250000
H        0.81430000       1.86610000      -0.17820000
H        0.56440000      -0.26240000      -0.98810000
H        0.64360000      -0.29680000       0.78730000
H       -1.82400000      -0.02840000       0.87120000
H       -2.22950000       0.79700000      -1.66120000
H       -3.51100000      -1.27880000      -2.55960000
H       -3.46060000      -3.00870000      -0.50550000
H       -0.05410000      -3.75970000      -0.20480000
H        0.18770000      -2.43330000      -1.37030000
H       -1.56860000      -2.37670000       1.14220000
