21
Properties=species:S:1:pos:R:3 gdb_65570=T pbc="F F F"
O       -0.05470000       1.71340000      -0.06400000
C        0.04780000       0.30550000       0.01830000
C       -1.37220000      -0.20310000       0.27540000
C       -2.35470000       0.17590000      -0.80870000
C       -2.77090000      -0.76050000      -1.86230000
O       -3.62810000      -0.47640000      -0.75780000
C        0.79910000      -0.43470000      -1.13290000
C        1.48160000      -1.33060000      -0.06480000
C        1.08920000      -0.28730000       1.01570000
H        0.81870000       2.06750000      -0.25880000
H       -1.36730000      -1.29160000       0.39540000
H       -1.71430000       0.22520000       1.22580000
H       -2.40960000       1.24080000      -1.02790000
H       -3.10630000      -0.38180000      -2.82710000
H       -2.35560000      -1.76820000      -1.88260000
H        0.19990000      -0.91140000      -1.91170000
H        1.51850000       0.23700000      -1.61390000
H        0.96180000      -2.28230000       0.07050000
H        2.54540000      -1.53720000      -0.19480000
H        1.89590000       0.43040000       1.19920000
H        0.71820000      -0.64640000       1.97930000
