15
Properties=species:S:1:pos:R:3 gdb_30260=T pbc="F F F"
O        0.34710000       1.31440000       0.38960000
C        0.08820000      -0.02730000       0.08490000
C       -1.43400000      -0.49280000       0.03640000
N       -1.17950000      -0.88250000      -1.36880000
C       -1.44570000      -1.51870000      -2.52420000
N       -0.35360000      -1.51930000      -3.28980000
C        0.63900000      -0.90590000      -2.58020000
O        1.88240000      -0.76010000      -3.08110000
C        0.14020000      -0.48690000      -1.36520000
H        0.07020000       1.84680000      -0.36470000
H        0.68290000      -0.61680000       0.78750000
H       -1.70250000      -1.33210000       0.68220000
H       -2.15470000       0.32110000       0.14530000
H       -2.40060000      -1.94000000      -2.79470000
H        1.86620000      -1.15930000      -3.95990000
