17
Properties=species:S:1:pos:R:3 gdb_26449=T pbc="F F F"
C        0.06490000       1.46570000      -0.01140000
N        0.01510000       0.01530000       0.00960000
C       -0.04170000      -0.66770000       1.20540000
N       -0.05260000      -0.06630000       2.33250000
C        0.02580000      -0.65840000      -1.20740000
C        0.07950000      -0.10550000      -2.46770000
N        0.06640000      -1.19430000      -3.32530000
C        0.00700000      -2.31270000      -2.56430000
N       -0.01890000      -2.02970000      -1.28010000
H        0.98190000       1.81420000      -0.50240000
H       -0.79710000       1.87460000      -0.55270000
H        0.04760000       1.81420000       1.01980000
H       -0.07420000      -1.74670000       1.04990000
H       -0.09690000      -0.74980000       3.08420000
H        0.12430000       0.90630000      -2.82710000
H        0.09490000      -1.15360000      -4.32950000
H       -0.01510000      -3.30540000      -2.98780000
