14
Properties=species:S:1:pos:R:3 gdb_20726=T pbc="F F F"
C       -0.01020000       1.50370000      -0.04010000
C        0.00070000       0.00990000       0.04380000
N       -0.06280000      -0.73430000      -1.07040000
N       -0.03280000      -2.00010000      -0.65100000
C        0.04850000      -2.11290000       0.70140000
C        0.09250000      -3.41540000       1.35080000
O        0.06000000      -4.46510000       0.74250000
C        0.07240000      -0.81290000       1.18700000
H        0.89830000       1.93480000       0.39370000
H       -0.07480000       1.81490000      -1.08460000
H       -0.86300000       1.92780000       0.50050000
H       -0.06880000      -2.76590000      -1.30490000
H        0.15830000      -3.38210000       2.45770000
H        0.13300000      -0.51150000       2.22090000
