21
Properties=species:S:1:pos:R:3 gdb_101045=T pbc="F F F"
C       -0.62560000       1.29350000       0.02880000
C        0.05870000      -0.07450000      -0.05640000
C        1.02620000      -0.12260000      -1.25490000
O        0.37980000       0.11130000      -2.49810000
C        0.79520000      -0.52440000       1.21910000
C        1.78490000       0.40980000       1.90840000
C        0.48490000       0.08470000       2.58090000
C        1.13960000      -1.92480000       1.22490000
C        1.40870000      -3.09800000       1.21420000
H        0.07020000       2.08350000       0.33330000
H       -1.00420000       1.55720000      -0.96160000
H       -1.46650000       1.28930000       0.72740000
H       -0.72070000      -0.82740000      -0.24380000
H        1.77370000       0.67280000      -1.15590000
H        1.56330000      -1.08070000      -1.25890000
H       -0.18500000      -0.64650000      -2.68060000
H        2.69520000      -0.03090000       2.29620000
H        1.90760000       1.40210000       1.48900000
H       -0.27380000       0.85620000       2.62600000
H        0.49920000      -0.58640000       3.43120000
H        1.65440000      -4.13080000       1.21260000
