21
Properties=species:S:1:pos:R:3 gdb_64108=T pbc="F F F"
C        0.22670000       1.40860000       0.00020000
C       -0.12340000      -0.09610000      -0.00130000
C       -1.65110000      -0.26720000      -0.00960000
C        0.55720000      -0.83820000      -1.19260000
C        1.86010000      -1.45530000      -0.63430000
C        1.60030000      -1.50230000       0.86520000
C        0.52330000      -0.77240000       1.18980000
C        2.44660000      -2.20740000       1.75440000
C        3.19240000      -2.82540000       2.47210000
H        1.30910000       1.56390000      -0.04830000
H       -0.23010000       1.91210000      -0.85950000
H       -0.14000000       1.89840000       0.90880000
H       -2.08470000       0.16270000      -0.91970000
H       -1.93040000      -1.32480000       0.03180000
H       -2.11180000       0.23740000       0.84700000
H       -0.10300000      -1.63980000      -1.53930000
H        0.73450000      -0.17480000      -2.04390000
H        2.07260000      -2.44560000      -1.04870000
H        2.74210000      -0.83640000      -0.84360000
H        0.16390000      -0.62750000       2.20320000
H        3.84110000      -3.36370000       3.11740000
