17
Properties=species:S:1:pos:R:3 gdb_77912=T pbc="F F F"
C        0.05660000       1.48510000      -0.01510000
C        0.03080000      -0.01330000       0.00220000
C        0.60910000      -1.00760000      -1.06570000
O        2.01380000      -0.92840000      -1.24180000
C        0.02260000      -1.98970000       0.01530000
C        0.61450000      -1.00630000       1.10790000
O        1.96760000      -0.99890000       1.41550000
C       -1.14370000      -0.99830000       0.01330000
O       -2.33710000      -0.98860000       0.02720000
H        1.08480000       1.85630000       0.04170000
H       -0.39920000       1.87950000      -0.92910000
H       -0.49700000       1.88950000       0.83800000
H        0.10880000      -1.00980000      -2.04090000
H        2.29410000      -1.68130000      -1.77300000
H        0.01180000      -3.07690000       0.00770000
H        0.07550000      -0.99990000       2.05790000
H        2.44930000      -0.96880000       0.57630000
