23
Properties=species:S:1:pos:R:3 gdb_101007=T pbc="F F F"
C       -0.01240000       1.40960000      -0.04520000
O       -0.12420000       0.00980000      -0.14590000
C        0.68560000      -0.59370000      -1.14920000
C        2.13980000      -0.71210000      -0.67830000
C        0.04690000      -1.94680000      -1.49120000
C        0.80300000      -2.68460000      -2.59540000
C       -0.32860000      -2.84990000      -0.28540000
O       -1.71130000      -2.89070000      -0.68840000
C       -1.48650000      -1.91770000      -1.72750000
H        0.98280000       1.73460000       0.29150000
H       -0.22840000       1.90440000      -1.00520000
H       -0.74920000       1.73700000       0.69250000
H        0.65260000       0.03480000      -2.05720000
H        2.78980000      -1.07840000      -1.47710000
H        2.52740000       0.26040000      -0.36320000
H        2.21320000      -1.39650000       0.17310000
H        1.81070000      -2.97330000      -2.28120000
H        0.26910000      -3.59960000      -2.86940000
H        0.89410000      -2.06770000      -3.49750000
H        0.12650000      -3.84840000      -0.27260000
H       -0.20430000      -2.37630000       0.69500000
H       -1.96430000      -0.95960000      -1.49760000
H       -1.82620000      -2.27590000      -2.70770000
