16
Properties=species:S:1:pos:R:3 gdb_11248=T pbc="F F F"
C        0.40090000       1.42280000      -0.30700000
C       -0.00240000      -0.01030000       0.04370000
O        0.32330000      -0.90380000      -1.03500000
C        1.31240000      -1.82360000      -0.63820000
C        2.65540000      -1.58060000      -1.33550000
O        2.94490000      -0.58450000      -1.93900000
C        1.46740000      -1.62620000       0.85540000
C        0.72590000      -0.59000000       1.22780000
H        1.47280000       1.47110000      -0.51330000
H       -0.13770000       1.75360000      -1.19910000
H        0.15840000       2.10430000       0.51550000
H       -1.09260000      -0.05190000       0.19000000
H        0.99580000      -2.85000000      -0.89320000
H        3.37460000      -2.42600000      -1.21530000
H        2.11360000      -2.23380000       1.47490000
H        0.63880000      -0.18390000       2.22770000
