21
Properties=species:S:1:pos:R:3 gdb_107648=T pbc="F F F"
C        0.27590000       1.30640000      -0.29800000
O       -0.18420000       0.05140000       0.16170000
C        0.56440000      -0.48910000       1.22220000
C        1.90020000      -1.10480000       0.86160000
C        0.70470000      -1.98180000       1.19370000
C        0.64030000      -2.73870000       2.51930000
C       -0.29440000      -2.05940000       3.53740000
C       -0.05940000      -0.56860000       3.60530000
C        0.34690000       0.14250000       2.55340000
H        1.33360000       1.26860000      -0.59600000
H       -0.33020000       1.56530000      -1.16980000
H        0.15620000       2.09860000       0.45470000
H        2.20460000      -1.04580000      -0.17810000
H        2.70880000      -1.04970000       1.58360000
H        0.23020000      -2.45600000       0.34100000
H        0.31800000      -3.77030000       2.34390000
H        1.64350000      -2.80010000       2.95730000
H       -1.34470000      -2.24570000       3.26870000
H       -0.15650000      -2.50900000       4.52700000
H       -0.23910000      -0.07320000       4.55640000
H        0.50720000       1.21410000       2.63980000
