18
Properties=species:S:1:pos:R:3 gdb_86647=T pbc="F F F"
C        0.25910000       1.48490000      -0.00470000
C       -0.06790000      -0.01140000      -0.04050000
C        0.62520000      -0.76150000      -1.19330000
N        1.87010000      -1.22160000      -0.57670000
C        2.95950000      -1.59930000      -1.33940000
O        4.01150000      -2.02710000      -0.94720000
C        1.74370000      -1.25850000       0.83110000
N        2.63290000      -1.69850000       1.62020000
N        0.46560000      -0.75510000       1.10230000
H        1.34130000       1.64980000      -0.01620000
H       -0.17980000       1.99840000      -0.86650000
H       -0.14680000       1.94830000       0.90070000
H       -1.15230000      -0.14910000      -0.09970000
H        0.01590000      -1.61030000      -1.52640000
H        0.82490000      -0.11620000      -2.05210000
H        2.73510000      -1.44050000      -2.41570000
H        2.32480000      -1.61310000       2.58810000
H        0.34030000      -0.35870000       2.02220000
