19
Properties=species:S:1:pos:R:3 gdb_78591=T pbc="F F F"
C       -0.02890000       1.62000000       0.02730000
C        0.11150000       0.09740000       0.04410000
C        0.80670000      -0.66020000      -1.08850000
C        2.31830000      -0.80570000      -0.72300000
C        2.53340000      -0.20650000       0.66390000
O        2.97130000       1.11150000       0.87340000
C        1.08270000      -0.66200000       1.00560000
C        1.26530000      -1.73660000      -0.16400000
O        1.07550000      -3.09050000      -0.24240000
H        0.82460000       2.12460000      -0.43890000
H       -0.90590000       1.91210000      -0.56030000
H       -0.15620000       2.02640000       1.03580000
H       -0.88120000      -0.34490000       0.18380000
H        0.49780000      -0.77010000      -2.12060000
H        3.04920000      -1.01680000      -1.49350000
H        3.24040000      -0.83090000       1.22050000
H        2.45990000       1.69850000       0.31080000
H        0.79420000      -0.85620000       2.03700000
H        1.82310000      -3.53240000       0.17600000
