13
Properties=species:S:1:pos:R:3 gdb_48338=T pbc="F F F"
N       -0.14840000       0.95540000       0.91140000
C       -0.11220000      -0.05070000       0.17840000
C       -1.13350000      -1.01470000      -0.38500000
C        0.09660000      -1.68990000      -1.03120000
O        0.97920000      -0.68320000      -0.43320000
C        0.49300000      -3.06070000      -0.44840000
O       -0.22140000      -3.69050000       0.27760000
C        0.18620000      -1.70090000      -2.48690000
N        0.25520000      -1.76050000      -3.63890000
H        0.77560000       1.35740000       1.07360000
H       -1.63730000      -1.64810000       0.34550000
H       -1.85200000      -0.57540000      -1.07600000
H        1.51340000      -3.38680000      -0.72970000
