16
Properties=species:S:1:pos:R:3 gdb_56072=T pbc="F F F"
O       -0.46670000      -1.62660000      -0.65930000
C       -0.27220000      -0.67140000      -0.02000000
O       -0.04220000       0.27060000       0.61970000
C       -3.34380000       3.85760000       0.08330000
N       -3.40040000       2.57390000       0.02690000
C       -3.43320000       1.80490000       1.12980000
N       -3.45380000       0.46260000       0.98780000
C       -3.42090000      -0.33970000      -0.07310000
N       -3.56140000      -1.72370000       0.18400000
H       -4.44880000      -2.09580000      -0.14850000
H       -2.82700000      -2.26290000      -0.26590000
H       -3.30790000       4.41800000       1.02510000
H       -3.33170000       4.42790000      -0.84140000
H       -3.42690000       2.17370000       2.15240000
H       -3.50280000      -0.06520000       1.85450000
H       -3.39260000       0.12370000      -1.05100000
