22
Properties=species:S:1:pos:R:3 gdb_7777=T pbc="F F F"
C       -0.00480000       1.55980000       0.03260000
C        0.02320000       0.02980000      -0.00830000
C        0.69720000      -0.50440000      -1.27980000
C        0.61230000      -2.03440000      -1.35440000
C        0.93780000      -2.68690000      -0.03660000
C        1.00120000      -2.03960000       1.12970000
C        1.36230000      -2.73140000       2.41630000
C        0.71870000      -0.55630000       1.23140000
H        1.01110000       1.97140000      -0.00290000
H       -0.55930000       1.97030000      -0.81810000
H       -0.47890000       1.92650000       0.94970000
H       -1.01560000      -0.33220000      -0.00680000
H        0.24240000      -0.05530000      -2.17060000
H        1.75210000      -0.19650000      -1.27720000
H       -0.39520000      -2.33890000      -1.67760000
H        1.28970000      -2.41230000      -2.13130000
H        1.13320000      -3.75780000      -0.05770000
H        1.58240000      -3.79110000       2.25970000
H        2.24190000      -2.26730000       2.88230000
H        0.54960000      -2.65590000       3.15080000
H        1.66470000      -0.02030000       1.41210000
H        0.10780000      -0.36260000       2.12430000
