18
Properties=species:S:1:pos:R:3 gdb_70950=T pbc="F F F"
C        0.13420000       1.55470000       0.02300000
C        0.04340000       0.05320000      -0.01430000
C        0.63060000      -0.91070000      -1.16620000
C       -0.06910000      -1.80890000      -0.10440000
C        0.60820000      -0.95570000       1.00770000
N       -0.94880000      -2.92910000       0.23540000
C       -1.91950000      -2.00740000       0.74030000
O       -2.86730000      -2.17710000       1.44480000
C       -1.25710000      -0.85350000      -0.11380000
H        1.17980000       1.88180000       0.01190000
H       -0.37170000       2.00350000      -0.83780000
H       -0.33360000       1.94480000       0.93260000
H        0.15800000      -0.83760000      -2.14750000
H        1.72130000      -0.95460000      -1.23790000
H        1.69600000      -1.02030000       1.09000000
H        0.12360000      -0.97190000       1.98810000
H       -0.67490000      -3.76230000       0.74620000
H       -1.78910000      -0.77360000      -1.06630000
