15
Properties=species:S:1:pos:R:3 gdb_132973=T pbc="F F F"
C       -0.00800000       1.48850000       0.02140000
N       -0.00870000       0.02950000      -0.00050000
C       -1.17480000      -0.71770000      -0.15130000
C       -1.14070000      -2.05770000      -0.15480000
C        0.12760000      -2.76920000       0.00170000
N        0.17250000      -4.04750000      -0.00190000
N        1.27640000      -1.95440000       0.15430000
C        1.13930000      -0.69600000       0.14460000
F        2.20490000       0.08500000       0.28850000
H        0.64350000       1.89100000      -0.75800000
H       -1.02690000       1.83290000      -0.15890000
H        0.32740000       1.86970000       0.99000000
H       -2.08060000      -0.13610000      -0.26300000
H       -2.04590000      -2.63730000      -0.27380000
H        1.14220000      -4.34560000       0.11940000
