18
Properties=species:S:1:pos:R:3 gdb_2344=T pbc="F F F"
C        0.14860000       1.35800000       0.00600000
O        0.37560000      -0.03040000       0.00370000
C        0.39840000      -0.58000000      -1.29850000
C        0.55500000      -2.07400000      -1.18260000
C        1.25890000      -2.84190000      -2.25150000
N        1.83690000      -2.72490000      -0.92110000
C        3.03860000      -1.91940000      -0.76050000
H        0.93630000       1.90420000      -0.53780000
H       -0.82070000       1.61500000      -0.45100000
H        0.14600000       1.68840000       1.04750000
H       -0.54510000      -0.35540000      -1.82630000
H        1.21000000      -0.13180000      -1.89290000
H       -0.27540000      -2.54810000      -0.66160000
H        0.91320000      -3.82950000      -2.54610000
H        1.71240000      -2.26320000      -3.05720000
H        3.15670000      -1.11600000      -1.50480000
H        3.03460000      -1.46560000       0.23450000
H        3.91100000      -2.57570000      -0.84130000
