16
Properties=species:S:1:pos:R:3 gdb_34270=T pbc="F F F"
C        0.04450000      -1.13390000       0.20990000
C        0.00000000       0.05130000       0.01000000
C       -0.13480000       1.46020000      -0.19670000
C       -1.38450000       2.19130000       0.36110000
C       -1.06800000       3.60710000      -0.07730000
C       -0.07660000       3.58040000      -0.99570000
C        1.33460000       3.66730000      -0.40850000
N        1.29460000       2.13070000      -0.40620000
C        0.24120000       2.15280000      -1.44510000
H        0.10170000      -2.18050000       0.37950000
H       -2.27740000       1.69420000      -0.04220000
H       -1.46860000       2.16110000       1.45270000
H       -1.13610000       4.41430000       0.64710000
H        2.15650000       3.93130000      -1.08140000
H        1.45140000       4.15900000       0.56040000
H        0.37070000       1.74070000      -2.43950000
