16
Properties=species:S:1:pos:R:3 gdb_53526=T pbc="F F F"
C       -0.02110000       1.48080000       0.00940000
C       -0.00990000       0.02660000      -0.03320000
C       -0.00140000      -1.17650000      -0.06850000
C       -0.01630000      -2.63560000      -0.10860000
N       -1.36440000      -3.21670000       0.01170000
C       -2.10870000      -3.39710000      -1.16320000
O       -3.22790000      -3.81700000      -1.23960000
C       -1.85830000      -3.46760000       1.30020000
O       -2.94170000      -3.89760000       1.57610000
H        0.57560000       1.85750000       0.84690000
H        0.38760000       1.90760000      -0.91270000
H       -1.04140000       1.86010000       0.12920000
H        0.42470000      -2.99880000      -1.04310000
H        0.60140000      -3.04850000       0.69600000
H       -1.50910000      -3.09970000      -2.04680000
H       -1.09160000      -3.21730000       2.06060000
