18
Properties=species:S:1:pos:R:3 gdb_54408=T pbc="F F F"
N        0.02750000       1.07400000      -0.71000000
C        0.00480000       0.02520000       0.15110000
O        0.91950000      -0.29000000       0.88970000
C       -1.27840000      -0.76720000       0.10790000
C       -1.41670000      -2.07210000      -0.71950000
C       -2.87580000      -1.57600000      -0.67880000
C       -3.27990000      -1.74060000       0.80140000
C       -1.99930000      -1.10380000       1.43140000
O       -2.36760000      -0.19900000      -0.69940000
H        0.84160000       1.66430000      -0.74380000
H       -0.77590000       1.27310000      -1.28220000
H       -0.97110000      -1.97360000      -1.70950000
H       -1.15590000      -3.02200000      -0.24850000
H       -3.60510000      -1.78950000      -1.45960000
H       -4.18640000      -1.17760000       1.03130000
H       -3.43500000      -2.78520000       1.08340000
H       -1.41720000      -1.78420000       2.05430000
H       -2.21280000      -0.19940000       2.00400000
