23
Properties=species:S:1:pos:R:3 gdb_119160=T pbc="F F F"
C       -0.22890000       1.60180000       0.08980000
C       -0.03880000       0.09430000      -0.09940000
C       -1.37030000      -0.66270000      -0.13390000
C       -1.28580000      -2.18370000      -0.08060000
C       -0.07860000      -2.89890000      -0.52270000
O       -0.33690000      -2.70860000       0.86960000
C       -2.63400000      -2.84640000      -0.09240000
C       -3.26780000      -3.28750000      -1.39330000
C       -2.84300000      -4.30940000      -0.37070000
H        0.73260000       2.12440000       0.10110000
H       -0.83210000       2.03320000      -0.71720000
H       -0.73810000       1.82080000       1.03490000
H        0.51440000      -0.08240000      -1.02990000
H        0.57370000      -0.31120000       0.71300000
H       -1.98190000      -0.34360000       0.72240000
H       -1.94210000      -0.38330000      -1.02850000
H       -0.14250000      -3.92740000      -0.87330000
H        0.76590000      -2.34070000      -0.92190000
H       -3.31730000      -2.41120000       0.63320000
H       -4.32570000      -3.10370000      -1.54410000
H       -2.66760000      -3.20140000      -2.29320000
H       -1.98410000      -4.93130000      -0.59240000
H       -3.61230000      -4.81690000       0.20040000
