16
Properties=species:S:1:pos:R:3 gdb_49218=T pbc="F F F"
O       -0.04900000      -0.01440000      -0.01320000
C        0.01220000       1.19470000      -0.01660000
C        1.26890000       1.94860000       0.03060000
C        1.35940000       3.28540000      -0.00070000
C        2.78430000       3.76380000       0.02060000
C        3.56780000       2.47780000       0.43750000
C        2.62690000       1.28680000       0.07600000
C        4.89710000       2.38610000      -0.15600000
N        5.94660000       2.31810000      -0.63550000
H       -0.90570000       1.82190000      -0.05370000
H        0.51340000       3.96120000      -0.07080000
H        3.08830000       4.11590000      -0.97390000
H        2.95720000       4.59440000       0.71150000
H        3.69150000       2.49640000       1.52550000
H        2.68290000       0.47580000       0.80520000
H        2.87970000       0.85330000      -0.89820000
