18
Properties=species:S:1:pos:R:3 gdb_119453=T pbc="F F F"
O       -0.12110000       1.48160000      -0.03520000
C        0.00460000       0.07020000      -0.05340000
C       -1.39690000      -0.51470000       0.11060000
C       -1.40900000      -2.01360000       0.08930000
C       -1.49130000      -2.88720000      -1.12650000
C       -2.57600000      -2.98070000      -0.04530000
C       -1.96740000      -3.73600000       1.12400000
O       -2.20860000      -4.73590000       1.73670000
N       -0.92550000      -2.79070000       1.24820000
H        0.75770000       1.86580000      -0.10170000
H        0.44580000      -0.28400000      -0.99920000
H        0.65140000      -0.28560000       0.76510000
H       -1.82020000      -0.15570000       1.05480000
H       -2.02830000      -0.13300000      -0.69930000
H       -1.81770000      -2.41010000      -2.04690000
H       -0.79700000      -3.71070000      -1.26600000
H       -3.61990000      -2.78600000      -0.24620000
H        0.04240000      -3.06810000       1.37490000
