15
Properties=species:S:1:pos:R:3 gdb_84334=T pbc="F F F"
O       -0.21440000       1.44370000       0.21310000
C       -0.00960000       0.04590000      -0.01340000
C        0.75780000      -0.58990000       1.12390000
C        0.16640000      -1.13580000       2.19350000
C       -1.30760000      -1.22210000       2.34190000
O       -1.82420000      -1.78580000       3.27990000
C       -2.14050000      -0.55610000       1.24040000
C       -1.41180000      -0.57570000      -0.08760000
O       -1.84940000      -1.06190000      -1.09760000
H        0.63500000       1.84370000       0.42950000
H        0.49230000      -0.12900000      -0.97290000
H        1.84330000      -0.57420000       1.05230000
H        0.73980000      -1.56790000       3.00770000
H       -3.11920000      -1.03080000       1.17120000
H       -2.26280000       0.49510000       1.53190000
