19
Properties=species:S:1:pos:R:3 gdb_72726=T pbc="F F F"
C       -0.03380000       1.53310000      -0.03400000
C       -0.01610000       0.01290000       0.02970000
O       -1.28240000      -0.39230000       0.71410000
C       -0.48270000      -0.53760000       1.94780000
C        0.75660000      -0.77780000       1.04780000
C        2.05660000      -0.32140000       0.29370000
C        1.06260000      -0.61820000      -0.95840000
O        0.91370000      -2.00970000      -0.92980000
C        0.65650000      -2.21990000       0.47550000
H        0.81080000       1.95520000      -0.58410000
H       -0.94920000       1.81540000      -0.56440000
H       -0.07370000       2.00020000       0.95540000
H       -0.48790000       0.38990000       2.52820000
H       -0.82950000      -1.37160000       2.56350000
H        2.33970000       0.71920000       0.42860000
H        2.93000000      -0.97700000       0.33060000
H        1.25510000      -0.26270000      -1.97210000
H        1.42780000      -2.87290000       0.90110000
H       -0.32720000      -2.67600000       0.60200000
