16
Properties=species:S:1:pos:R:3 gdb_10942=T pbc="F F F"
C        0.05010000       1.54760000      -0.04930000
C       -0.08070000       0.07150000       0.12750000
C       -1.35410000      -0.79350000       0.07140000
C       -0.65870000      -1.82100000       1.04870000
C       -0.44980000      -3.22220000       0.53830000
O       -0.86680000      -4.21430000       1.08290000
C        0.58180000      -0.89750000       1.01920000
O        0.98360000      -0.76860000      -0.35000000
H        1.06400000       1.87300000       0.19750000
H       -0.15650000       1.83260000      -1.08710000
H       -0.65810000       2.08020000       0.59330000
H       -2.22940000      -0.33280000       0.53380000
H       -1.61620000      -1.15990000      -0.92460000
H       -1.14600000      -1.85600000       2.02480000
H        0.13230000      -3.28000000      -0.40640000
H        1.34790000      -0.77700000       1.77710000
