20
Properties=species:S:1:pos:R:3 gdb_90886=T pbc="F F F"
C       -0.02050000       1.50170000      -0.04260000
C        0.02750000      -0.01060000      -0.00670000
C       -1.29840000      -0.77650000       0.33480000
C       -0.49120000      -1.64750000       1.30430000
C        0.69950000      -0.75310000       1.18700000
N        0.76840000      -2.13580000       0.71870000
C        0.83150000      -2.14980000      -0.75650000
C        0.67800000      -0.67680000      -1.22500000
O       -0.14270000      -0.49470000      -2.36800000
H        0.98860000       1.92570000      -0.11180000
H       -0.58700000       1.84370000      -0.91450000
H       -0.49550000       1.90960000       0.85540000
H       -1.99500000      -0.13310000       0.87850000
H       -1.82610000      -1.25870000      -0.49240000
H       -0.87350000      -2.18860000       2.16320000
H        1.40450000      -0.37210000       1.91730000
H        1.79040000      -2.58430000      -1.05640000
H        0.03270000      -2.76900000      -1.17750000
H        1.67070000      -0.22850000      -1.39600000
H        0.30750000      -0.87310000      -3.12880000
