18
Properties=species:S:1:pos:R:3 gdb_9739=T pbc="F F F"
C        0.02460000       1.61620000      -0.02440000
C        0.01930000       0.08730000       0.00040000
C        0.75050000      -0.56040000      -1.21670000
C        2.03440000      -1.13450000      -0.60010000
O        1.65440000      -1.53020000       0.70690000
C        0.83140000      -0.49680000       1.20870000
C       -1.39700000      -0.45270000       0.07490000
O       -2.39920000       0.21350000       0.09140000
H        1.04500000       1.99580000      -0.13700000
H       -0.58270000       1.99450000      -0.85030000
H       -0.39380000       2.02560000       0.89980000
H        0.15350000      -1.37350000      -1.64350000
H        0.93650000       0.16870000      -2.00840000
H        2.42520000      -2.01230000      -1.11990000
H        2.82670000      -0.36860000      -0.56320000
H        1.43320000       0.31070000       1.65400000
H        0.20160000      -0.92450000       1.99580000
H       -1.44490000      -1.56660000       0.12320000
