21
Properties=species:S:1:pos:R:3 gdb_108632=T pbc="F F F"
C       -0.28840000       1.60240000      -0.08840000
C        0.04530000       0.10240000       0.01230000
C        0.77440000      -0.43090000      -1.18830000
C        2.04090000      -0.87660000      -1.25610000
C        3.05750000      -0.95930000      -0.15930000
C        2.40730000      -1.33900000      -2.64620000
C        1.12940000      -1.12100000      -3.46180000
O        0.97890000      -1.37710000      -4.62770000
C        0.07580000      -0.51910000      -2.52630000
H        0.62390000       2.20040000      -0.17870000
H       -0.91600000       1.81780000      -0.95870000
H       -0.82900000       1.93920000       0.80140000
H        0.62750000      -0.07550000       0.92160000
H       -0.89270000      -0.45750000       0.13520000
H        3.40770000      -1.99140000      -0.02770000
H        3.94570000      -0.36220000      -0.40420000
H        2.67510000      -0.60900000       0.80160000
H        3.23800000      -0.77300000      -3.09070000
H        2.70920000      -2.39470000      -2.69080000
H       -0.82030000      -1.15520000      -2.50910000
H       -0.25550000       0.45100000      -2.92040000
