15
Properties=species:S:1:pos:R:3 gdb_27732=T pbc="F F F"
C        0.00790000       1.51240000       0.10410000
C        0.03210000       0.02600000       0.00350000
C       -0.01200000      -0.77300000      -1.11170000
O        0.03790000      -2.09330000      -0.66300000
C        0.10710000      -1.98220000       0.66730000
N        0.21960000      -3.12780000       1.38160000
N        0.10480000      -0.75790000       1.13560000
C       -0.09950000      -0.51230000      -2.52420000
O       -0.13870000      -1.35140000      -3.40180000
H        0.91280000       1.87080000       0.60580000
H       -0.05980000       1.98750000      -0.87600000
H       -0.84460000       1.83550000       0.71050000
H       -0.07830000      -3.97970000       0.93460000
H        0.03370000      -3.04580000       2.36770000
H       -0.13070000       0.57480000      -2.75620000
