16
Properties=species:S:1:pos:R:3 gdb_45834=T pbc="F F F"
N       -0.10100000       1.32300000       0.37960000
C       -0.08280000       0.13680000      -0.04750000
C       -1.31820000      -0.72720000      -0.00910000
C       -1.68530000      -1.26910000      -1.37040000
C       -0.89980000      -2.14830000      -1.98330000
C        0.36990000      -2.64130000      -1.33380000
C        1.43780000      -1.57560000      -1.13360000
O        2.58100000      -1.73020000      -1.44770000
O        1.11090000      -0.36680000      -0.55480000
H        0.82110000       1.75260000       0.27960000
H       -1.14750000      -1.55680000       0.69240000
H       -2.10750000      -0.10520000       0.41060000
H       -2.59220000      -0.90070000      -1.83790000
H       -1.14050000      -2.52990000      -2.96990000
H        0.14740000      -3.06770000      -0.34440000
H        0.85190000      -3.42580000      -1.91660000
