17
Properties=species:S:1:pos:R:3 gdb_38486=T pbc="F F F"
C       -0.02840000       1.42450000       0.00470000
C        1.34770000       0.79130000      -0.07760000
C        1.67670000       0.10100000       1.25330000
O        0.41420000      -0.63180000       1.26210000
C        0.09320000      -0.06420000      -0.01050000
C        0.01500000      -0.88070000      -1.26950000
O       -0.13560000      -0.04500000      -2.41910000
C        1.18430000      -0.52350000      -2.11290000
C        2.06350000       0.51630000      -1.39670000
H       -0.33620000       1.90980000       0.92650000
H       -0.38870000       1.87530000      -0.91130000
H        2.52390000      -0.59150000       1.18370000
H        1.78760000       0.73110000       2.14370000
H       -0.48460000      -1.84520000      -1.29480000
H        1.60970000      -1.18240000      -2.86840000
H        2.19900000       1.40550000      -2.02090000
H        3.05820000       0.09440000      -1.21440000
