20
Properties=species:S:1:pos:R:3 gdb_105031=T pbc="F F F"
C        0.36320000       1.23260000      -0.47000000
C        0.03100000      -0.20750000      -0.05810000
C        0.85710000      -0.72840000       1.10650000
C        1.24140000      -2.16210000       1.11870000
N        2.25950000      -1.11770000       0.87870000
C        0.62870000       0.00990000       2.42910000
O       -0.73380000       0.01520000       2.76400000
C        1.44750000      -0.55800000       3.57470000
O        0.91690000      -0.89060000       4.60930000
H        1.42520000       1.34780000      -0.71320000
H       -0.21450000       1.52090000      -1.35300000
H        0.12140000       1.94460000       0.32470000
H       -1.02720000      -0.27940000       0.21310000
H        0.18630000      -0.87860000      -0.91260000
H        1.34850000      -2.70410000       2.05520000
H        0.92280000      -2.77870000       0.28260000
H        2.48060000      -1.06510000      -0.11290000
H        0.99640000       1.04560000       2.29770000
H       -0.77470000      -0.33470000       3.66920000
H        2.53670000      -0.63150000       3.41430000
