14
Properties=species:S:1:pos:R:3 gdb_47260=T pbc="F F F"
O        0.04420000       0.11600000      -0.50580000
C        0.01310000       1.23960000      -0.07730000
C       -1.24380000       2.03080000       0.18170000
C       -1.53390000       2.93970000      -1.03140000
N       -0.53460000       3.90550000      -1.41560000
C        0.65690000       3.99910000      -1.04770000
O        1.46140000       3.27300000      -0.16730000
C        1.32650000       1.97160000       0.24890000
O        2.20050000       1.46980000       0.88540000
H       -2.07380000       1.33330000       0.31770000
H       -1.13340000       2.64130000       1.08490000
H       -1.73550000       2.31260000      -1.90880000
H       -2.45870000       3.49470000      -0.83960000
H        1.27990000       4.80780000      -1.42280000
