19
Properties=species:S:1:pos:R:3 gdb_101762=T pbc="F F F"
C       -0.13660000       1.29440000       0.25880000
C       -0.52380000      -0.07500000      -0.23750000
O       -0.80850000      -0.33360000      -1.38730000
O       -0.50270000      -0.97170000       0.75730000
C       -0.70660000      -2.36900000       0.43380000
C       -2.13460000      -2.72460000       0.00860000
O       -2.32520000      -2.64860000      -1.39150000
C       -2.47060000      -4.17220000       0.38230000
O       -3.73540000      -4.53840000      -0.11660000
H        0.91860000       1.29370000       0.54870000
H       -0.29970000       2.02800000      -0.52930000
H       -0.71790000       1.55260000       1.14740000
H       -0.00670000      -2.66390000      -0.35390000
H       -0.44270000      -2.87900000       1.36340000
H       -2.83180000      -2.05530000       0.53980000
H       -1.91800000      -1.82160000      -1.69350000
H       -1.67480000      -4.83210000      -0.00560000
H       -2.50090000      -4.28400000       1.47160000
H       -3.75500000      -4.21500000      -1.02660000
