18
Properties=species:S:1:pos:R:3 gdb_34746=T pbc="F F F"
N       -0.19460000      -1.19580000      -0.22780000
C       -0.11200000      -0.04890000      -0.10130000
C        0.00290000       1.39770000       0.05830000
C       -0.23690000       2.03970000       1.43030000
C        0.98240000       1.92170000       2.33060000
C        2.02380000       0.83600000       2.05900000
C        2.50820000       1.13890000       0.61300000
C        1.43140000       2.07120000       0.04590000
C        0.96410000       2.95200000       1.23940000
H       -0.63430000       1.87660000      -0.69060000
H       -1.21620000       2.27010000       1.83180000
H        0.80950000       2.24940000       3.34980000
H        2.84470000       0.90030000       2.77910000
H        1.59870000      -0.16810000       2.14340000
H        3.46780000       1.66650000       0.62940000
H        2.63510000       0.23430000       0.01170000
H        1.68910000       2.55770000      -0.89380000
H        1.05470000       4.02340000       1.35060000
