18
Properties=species:S:1:pos:R:3 gdb_13485=T pbc="F F F"
C        0.02840000       1.60100000       0.13460000
C        0.02440000       0.06890000       0.05150000
C        0.73740000      -0.56370000       1.25470000
C       -1.40810000      -0.46620000      -0.06570000
C       -2.19570000      -0.23000000      -1.37050000
O       -2.28290000      -1.67520000      -1.59330000
C       -1.56440000      -1.94170000      -0.45480000
O       -1.22820000      -3.00570000      -0.04220000
H        1.05290000       1.98330000       0.18350000
H       -0.45640000       2.05930000      -0.73410000
H       -0.49810000       1.94470000       1.03270000
H        0.56290000      -0.22650000      -0.86030000
H        0.25700000      -0.26210000       2.19320000
H        0.71280000      -1.65490000       1.20010000
H        1.78200000      -0.24010000       1.29790000
H       -1.97930000      -0.22480000       0.83710000
H       -3.19140000       0.20750000      -1.27760000
H       -1.64000000       0.24750000      -2.18110000
