19
Properties=species:S:1:pos:R:3 gdb_35579=T pbc="F F F"
N       -0.16860000      -1.13470000      -0.27360000
C       -0.09240000       0.01570000      -0.18870000
C        0.01590000       1.47380000      -0.09830000
N       -0.27930000       2.05010000       1.23060000
C        0.85470000       3.00970000       1.10910000
C        1.86230000       3.00030000       2.27580000
C        3.11520000       2.29810000       1.69990000
C        2.56870000       1.32870000       0.63190000
C        1.43350000       2.12370000      -0.03440000
H       -0.57100000       1.90600000      -0.92040000
H       -1.20580000       2.44940000       1.33040000
H        0.55000000       4.01710000       0.80350000
H        2.08600000       4.00320000       2.65030000
H        1.43570000       2.42190000       3.10030000
H        3.76990000       3.03910000       1.22490000
H        3.70910000       1.79080000       2.46510000
H        3.33160000       1.00320000      -0.07980000
H        2.16860000       0.43010000       1.11280000
H        1.74600000       2.62240000      -0.95180000
