17
Properties=species:S:1:pos:R:3 gdb_92409=T pbc="F F F"
O        0.21290000       1.27330000      -0.40960000
C        0.08110000      -0.05890000      -0.00020000
C        0.20930000      -0.34850000       1.52700000
C       -1.28220000      -0.68370000       1.58190000
O       -2.09530000       0.51330000       1.64950000
C       -2.45940000       0.41230000       0.25100000
C       -1.39670000      -0.66890000       0.01520000
C       -1.66340000      -1.79510000      -0.82910000
C       -1.86680000      -2.74260000      -1.54290000
H       -0.18380000       1.83420000       0.26680000
H        0.74950000      -0.64550000      -0.63200000
H        0.84470000      -1.21490000       1.73240000
H        0.53030000       0.48880000       2.15240000
H       -1.65400000      -1.48630000       2.22290000
H       -3.48490000       0.04610000       0.12550000
H       -2.33160000       1.35510000      -0.29060000
H       -2.05440000      -3.57710000      -2.17220000
