21
Properties=species:S:1:pos:R:3 gdb_107798=T pbc="F F F"
C        0.06380000       1.35280000       0.07450000
O        0.03390000      -0.05660000      -0.04470000
C       -1.23190000      -0.60940000      -0.01320000
C       -2.14650000      -0.50500000       1.24690000
C       -2.69000000      -1.86240000       0.80250000
C       -2.72310000      -1.88420000      -0.73760000
C       -1.44610000      -2.17140000       0.00660000
C       -2.21150000      -0.53380000      -1.24330000
C       -3.18120000       0.62200000      -1.46600000
H        1.11500000       1.64660000       0.11680000
H       -0.40690000       1.84850000      -0.78560000
H       -0.43790000       1.69410000       0.99110000
H       -1.54500000      -0.60540000       2.15500000
H       -2.82900000       0.34580000       1.34480000
H       -3.28970000      -2.55440000       1.37920000
H       -3.34830000      -2.59270000      -1.26650000
H       -0.76180000      -3.00610000      -0.00060000
H       -1.60690000      -0.70160000      -2.14240000
H       -3.79120000       0.82520000      -0.58130000
H       -2.65880000       1.54560000      -1.73750000
H       -3.86910000       0.38490000      -2.28590000
