19
Properties=species:S:1:pos:R:3 gdb_31620=T pbc="F F F"
C       -0.77860000       0.45200000       0.43250000
O        0.19790000       0.83910000      -0.51680000
C        0.55490000      -0.12630000      -1.39550000
C        0.18960000      -1.44910000      -1.52800000
C        0.92430000      -1.95560000      -2.64760000
N        0.77570000      -3.25270000      -3.18150000
C        1.69820000      -0.93340000      -3.13810000
N        1.45230000       0.20410000      -2.36690000
C        2.13010000       1.47280000      -2.49860000
H       -1.70840000       0.14120000      -0.06080000
H       -0.41560000      -0.37400000       1.05760000
H       -0.96920000       1.32600000       1.05710000
H       -0.53000000      -1.98700000      -0.93300000
H        0.70380000      -3.95340000      -2.45330000
H        1.54790000      -3.50300000      -3.78690000
H        2.38260000      -0.89310000      -3.96950000
H        2.17800000       1.76220000      -3.55280000
H        1.57300000       2.23320000      -1.95080000
H        3.15240000       1.43450000      -2.10130000
