20
Properties=species:S:1:pos:R:3 gdb_96429=T pbc="F F F"
C       -0.13670000       1.53160000      -0.06390000
C        0.03670000       0.01680000       0.01350000
C        0.82130000      -0.50390000      -1.20480000
O        0.97680000      -1.90750000      -1.18040000
C        1.67090000      -2.33670000      -0.01930000
C        0.92930000      -1.91600000       1.24620000
N        0.70230000      -0.47320000       1.22500000
C        1.08830000       0.27990000       2.29420000
O        1.63200000      -0.15550000       3.29120000
H        0.82340000       2.05660000      -0.04720000
H       -0.63630000       1.77670000      -1.00600000
H       -0.75740000       1.91850000       0.74800000
H       -0.95930000      -0.45110000      -0.02600000
H        0.28090000      -0.26700000      -2.12610000
H        1.80540000      -0.00460000      -1.23510000
H        1.74250000      -3.42580000      -0.08290000
H        2.69000000      -1.91710000      -0.00860000
H       -0.03610000      -2.43870000       1.29400000
H        1.50020000      -2.14570000       2.14700000
H        0.86170000       1.35040000       2.17030000
