16
Properties=species:S:1:pos:R:3 gdb_126091=T pbc="F F F"
C        0.09280000       1.58150000      -0.12460000
C       -0.05960000       0.07520000       0.07110000
O        0.52460000      -0.62110000      -1.05320000
C        1.47980000      -1.63540000      -0.67150000
C        1.56430000      -1.47720000       0.81150000
C        0.69130000      -0.51500000       1.21990000
N        0.84560000      -0.47380000       2.55600000
N        1.78630000      -1.38110000       2.95030000
N        2.22030000      -1.99140000       1.87990000
H        1.14950000       1.86050000      -0.14770000
H       -0.36870000       1.87750000      -1.07000000
H       -0.40160000       2.12840000       0.68560000
H       -1.13060000      -0.17740000       0.11800000
H        1.11130000      -2.62240000      -0.98220000
H        2.42550000      -1.44650000      -1.19400000
H        0.39930000       0.09440000       3.25760000
