13
Properties=species:S:1:pos:R:3 gdb_5443=T pbc="F F F"
N        0.08300000       1.39270000       0.15320000
C        0.00110000       0.00740000       0.03190000
C       -1.07880000      -0.85740000      -0.00310000
N       -0.62970000      -2.17380000      -0.03200000
C        0.67120000      -2.09940000      -0.02390000
N        1.11210000      -0.79580000       0.01670000
C       -2.43690000      -0.47090000      -0.00330000
C       -3.58040000      -0.08800000      -0.00650000
H        0.58220000       1.83700000      -0.61070000
H       -0.84810000       1.79000000       0.20990000
H        1.35740000      -2.93210000      -0.05860000
H        2.06290000      -0.47890000       0.10850000
H       -4.59440000       0.22550000      -0.00440000
