27
Properties=species:S:1:pos:R:3 gdb_118464=T pbc="F F F"
C        0.03670000       1.40990000       0.42800000
C       -0.11700000      -0.05400000      -0.00160000
C        0.64940000      -0.45370000      -1.27940000
C        2.15200000      -0.15790000      -1.14740000
O        2.40230000       1.20400000      -1.43650000
C        3.76180000       1.54390000      -1.32170000
C        0.44360000      -1.94470000      -1.67990000
C       -0.98580000      -2.46240000      -1.45580000
C        0.83180000      -2.18520000      -3.14900000
H        1.07050000       1.66260000       0.67210000
H       -0.27890000       2.08990000      -0.37000000
H       -0.58210000       1.61300000       1.30840000
H        0.20110000      -0.71100000       0.82110000
H       -1.18270000      -0.25360000      -0.15120000
H        0.28180000       0.17040000      -2.10650000
H        2.49290000      -0.40020000      -0.12440000
H        2.74240000      -0.78790000      -1.83090000
H        4.39020000       0.95150000      -2.00650000
H        3.85990000       2.60150000      -1.57950000
H        4.13960000       1.39170000      -0.29770000
H        1.11150000      -2.54940000      -1.04690000
H       -1.71730000      -1.85620000      -2.00390000
H       -1.07430000      -3.49090000      -1.82110000
H       -1.27250000      -2.46300000      -0.40160000
H        0.78680000      -3.25160000      -3.39340000
H        0.13700000      -1.66300000      -3.81750000
H        1.84040000      -1.83610000      -3.38630000
