22
Properties=species:S:1:pos:R:3 gdb_109736=T pbc="F F F"
C       -0.23470000       1.52450000       0.45990000
C       -0.08760000       0.03930000       0.10490000
C       -1.42410000      -0.62070000      -0.17130000
C       -1.64660000      -2.11880000      -0.14210000
C       -0.54120000      -3.10180000       0.17280000
N       -2.21510000      -1.24430000       0.86610000
C       -2.06360000      -1.20710000       2.23880000
C       -2.42140000      -2.50390000       2.94620000
O       -1.74740000      -0.19880000       2.83940000
H        0.74570000       1.98520000       0.61450000
H       -0.73710000       2.07400000      -0.34400000
H       -0.82060000       1.63120000       1.37510000
H        0.53470000      -0.07070000      -0.79340000
H        0.43110000      -0.47740000       0.91690000
H       -2.03080000      -0.07200000      -0.89400000
H       -2.38550000      -2.50840000      -0.84360000
H        0.19010000      -2.69380000       0.87390000
H       -0.94750000      -4.02290000       0.60290000
H       -0.01460000      -3.37470000      -0.74800000
H       -1.54920000      -3.16650000       2.96930000
H       -2.70410000      -2.27710000       3.97470000
H       -3.23180000      -3.03220000       2.43840000
