20
Properties=species:S:1:pos:R:3 gdb_87244=T pbc="F F F"
C       -0.34530000       1.37750000      -0.45650000
C       -0.05500000      -0.04150000      -0.01000000
C       -1.18740000      -1.03560000      -0.20890000
N       -2.37130000      -0.69450000       0.56640000
C       -3.60800000      -0.54330000       0.02080000
O       -3.88500000      -0.69970000      -1.14950000
C        1.35460000      -0.57640000      -0.19300000
C        0.83580000      -0.26240000       1.18910000
O        1.29590000       0.86540000       1.87400000
H        0.46750000       2.04830000      -0.17420000
H       -0.47820000       1.41970000      -1.54280000
H       -1.26390000       1.75190000       0.00630000
H       -1.50720000      -1.06270000      -1.25400000
H       -0.84610000      -2.04540000       0.05560000
H       -2.26250000      -0.51850000       1.55310000
H       -4.35760000      -0.25540000       0.78510000
H        1.49710000      -1.61480000      -0.47490000
H        2.08350000       0.11140000      -0.60900000
H        0.59940000      -1.11280000       1.83190000
H        2.21810000       0.71680000       2.10720000
