16
Properties=species:S:1:pos:R:3 gdb_48876=T pbc="F F F"
O       -0.73660000       0.89910000      -0.57980000
C        0.13800000       1.04710000       0.23670000
C        1.38980000       1.82800000      -0.00120000
N        1.45800000       3.13930000       0.84500000
C        1.89370000       3.80560000      -0.39870000
C        3.03450000       3.00760000      -1.09260000
C        3.67110000       1.91020000      -0.31410000
C        2.72710000       1.16910000       0.27500000
C        1.58100000       2.65870000      -1.30510000
H        0.05480000       0.61330000       1.25950000
H        0.49010000       3.43420000       0.98790000
H        1.80910000       4.87900000      -0.51790000
H        3.57030000       3.54750000      -1.86400000
H        4.74150000       1.79680000      -0.19490000
H        2.86790000       0.36870000       0.98920000
H        1.05890000       2.55790000      -2.24780000
