17
Properties=species:S:1:pos:R:3 gdb_82853=T pbc="F F F"
O        0.09160000       1.41180000      -0.04770000
C        0.00610000       0.02670000       0.00900000
C        0.21770000      -0.69590000       1.36720000
O       -0.50370000       0.03810000       2.38200000
C       -1.86210000      -0.32920000       2.17400000
C       -1.81210000      -1.85590000       2.06850000
C       -0.82040000      -1.78470000       0.91560000
C       -1.39000000      -0.65310000      -0.01300000
O       -2.26130000       0.08480000       0.87300000
H       -0.49510000       1.74100000       0.64560000
H        0.65900000      -0.39010000      -0.76440000
H        1.21380000      -0.93670000       1.73910000
H       -2.48950000       0.15500000       2.91980000
H       -1.41350000      -2.32610000       2.96920000
H       -2.77660000      -2.28980000       1.79900000
H       -0.44660000      -2.69290000       0.45200000
H       -1.91510000      -0.85350000      -0.94710000
