19
Properties=species:S:1:pos:R:3 gdb_71019=T pbc="F F F"
C       -0.04390000       1.50000000      -0.05580000
C        0.05290000      -0.00130000      -0.03890000
C        0.69750000      -0.93080000      -1.13540000
C        0.19290000      -1.90320000      -0.05030000
C       -0.04370000      -3.26450000       0.57920000
C       -0.66890000      -2.92930000       1.71870000
C       -0.77680000      -1.38370000       1.71670000
C        0.58210000      -0.92250000       1.10670000
C       -1.08360000      -1.03990000       0.22700000
H        0.94840000       1.96320000      -0.09840000
H       -0.61180000       1.85330000      -0.92410000
H       -0.54680000       1.86830000       0.84550000
H        0.19300000      -0.96320000      -2.10710000
H        1.78180000      -0.85130000      -1.26800000
H        0.22360000      -4.24120000       0.20320000
H       -1.03420000      -3.58420000       2.49810000
H       -1.25970000      -0.89730000       2.56610000
H        1.56440000      -0.88640000       1.58630000
H       -2.03010000      -1.13960000      -0.31190000
