16
Properties=species:S:1:pos:R:3 gdb_72976=T pbc="F F F"
C       -0.11840000       1.52640000       0.05560000
C        0.03490000       0.04270000       0.10810000
O       -1.12880000      -0.74800000      -0.07960000
C       -0.64860000      -1.73040000       0.87590000
C        0.65540000      -0.96770000       1.06420000
C        1.25880000      -0.75380000      -0.32800000
O        1.13260000      -1.69250000      -1.34560000
C        2.50900000      -0.02380000      -0.32190000
N        3.51900000       0.54100000      -0.32300000
H        0.84150000       2.02450000       0.20800000
H       -0.50920000       1.82170000      -0.92380000
H       -0.82200000       1.86410000       0.82170000
H       -1.27920000      -1.73510000       1.77000000
H       -0.58960000      -2.73320000       0.44290000
H        1.22810000      -0.85310000       1.97480000
H        1.75950000      -2.40730000      -1.18150000
