17
Properties=species:S:1:pos:R:3 gdb_26973=T pbc="F F F"
C       -0.02910000       1.41830000      -0.29780000
C       -0.09360000      -0.05100000      -0.07970000
C       -1.11450000      -0.95700000      -0.03220000
C       -2.59770000      -0.70440000      -0.18370000
C       -2.97310000       0.03860000      -1.38590000
C       -3.28980000       0.65400000      -2.36860000
C       -0.50550000      -2.23100000       0.23320000
C        0.82800000      -2.00550000       0.32520000
O        1.09560000      -0.68630000       0.13680000
H        0.72240000       1.66820000      -1.05430000
H       -0.99630000       1.78730000      -0.64280000
H        0.24070000       1.95310000       0.62110000
H       -3.11650000      -1.67040000      -0.19060000
H       -2.98610000      -0.17190000       0.69560000
H       -3.56780000       1.18960000      -3.24230000
H       -1.00910000      -3.18050000       0.33320000
H        1.68180000      -2.63740000       0.50490000
