19
Properties=species:S:1:pos:R:3 gdb_112205=T pbc="F F F"
O       -0.04720000       1.52780000       0.13220000
C       -0.07580000       0.13150000       0.37600000
C       -1.39790000      -0.50900000      -0.02870000
C       -1.63230000      -0.64720000      -1.57460000
C       -1.70580000      -2.17710000      -1.38310000
O       -1.88160000      -3.10750000      -2.11930000
C       -1.48170000      -2.04600000       0.09330000
C       -0.67720000      -3.01430000       0.94000000
C       -2.15290000      -2.90750000       1.14130000
H       -0.15330000       1.66380000      -0.81510000
H        0.75710000      -0.38540000      -0.12910000
H        0.08280000       0.01910000       1.45430000
H       -2.21670000       0.01290000       0.47470000
H       -2.55010000      -0.20150000      -1.96670000
H       -0.79490000      -0.33210000      -2.20780000
H       -0.28660000      -3.88800000       0.42910000
H       -0.02160000      -2.59050000       1.69280000
H       -2.51780000      -2.40180000       2.02910000
H       -2.78450000      -3.70900000       0.77280000
