16
Properties=species:S:1:pos:R:3 gdb_11439=T pbc="F F F"
O        0.16900000       1.20410000       0.41410000
C        0.00860000      -0.17290000       0.16540000
C       -1.43000000      -0.51820000      -0.21120000
C       -1.70990000      -2.02880000      -0.34350000
C       -2.27090000      -2.40300000       1.03280000
C       -2.77080000      -1.08350000       1.61040000
O       -3.46190000      -0.90210000       2.56800000
O       -2.29210000      -0.05200000       0.85390000
H       -0.50480000       1.44950000       1.05950000
H        0.67130000      -0.42860000      -0.66880000
H        0.31450000      -0.78510000       1.03180000
H       -1.71340000       0.04840000      -1.10200000
H       -2.45180000      -2.20740000      -1.12560000
H       -0.80750000      -2.58450000      -0.60960000
H       -3.08360000      -3.13030000       1.01190000
H       -1.50420000      -2.79450000       1.70960000
