20
Properties=species:S:1:pos:R:3 gdb_101593=T pbc="F F F"
C       -0.18440000       1.30050000       0.99260000
N        0.14850000      -0.09700000       1.18460000
C        1.00920000      -0.75800000       0.36370000
O        1.56320000      -0.24570000      -0.59370000
C        1.23350000      -2.24010000       0.69710000
C        1.19660000      -2.64200000       2.17220000
O       -0.11760000      -2.48990000       2.75180000
C        1.66650000      -4.07760000       2.41140000
O        1.59540000      -4.41860000       3.77690000
H        0.38860000       1.66070000       0.13760000
H       -1.25300000       1.43250000       0.78700000
H        0.07460000       1.89530000       1.87560000
H       -0.26400000      -0.61370000       1.94850000
H        0.49050000      -2.82960000       0.14010000
H        2.20620000      -2.49540000       0.26780000
H        1.82480000      -1.96930000       2.76610000
H       -0.73100000      -3.01390000       2.22030000
H        1.06020000      -4.76140000       1.78760000
H        2.70950000      -4.19040000       2.09750000
H        0.75700000      -4.06110000       4.09570000
