24
Properties=species:S:1:pos:R:3 gdb_113919=T pbc="F F F"
C        0.21370000       1.49750000       0.10830000
C        0.05690000      -0.02850000       0.13700000
C        0.44200000      -0.58880000       1.51310000
C       -1.37150000      -0.43260000      -0.28000000
C       -1.54640000      -1.92000000      -0.50390000
N       -1.98940000      -2.75650000       0.62940000
C       -2.85460000      -2.62880000      -0.56250000
C       -4.19910000      -1.99240000      -0.29260000
O       -5.00030000      -2.83620000       0.51830000
H        1.23400000       1.79490000       0.37190000
H       -0.01060000       1.90630000      -0.88280000
H       -0.46510000       1.97360000       0.82620000
H        0.74930000      -0.44960000      -0.60770000
H       -0.21600000      -0.18740000       2.29260000
H        0.36050000      -1.67790000       1.54870000
H        1.47060000      -0.31500000       1.77100000
H       -2.07970000      -0.08930000       0.48200000
H       -1.62790000       0.09010000      -1.21160000
H       -0.77350000      -2.35160000      -1.14200000
H       -1.50780000      -3.65110000       0.62460000
H       -2.90460000      -3.49510000      -1.22070000
H       -4.07030000      -1.00450000       0.17030000
H       -4.74740000      -1.85110000      -1.23010000
H       -4.46620000      -3.02540000       1.29930000
