19
Properties=species:S:1:pos:R:3 gdb_102452=T pbc="F F F"
C       -1.44590000      -0.42220000       0.48630000
C        0.05320000      -0.21190000       0.24980000
C        0.53280000      -0.67920000      -1.13020000
C        2.00560000      -0.26170000      -1.41470000
O        2.17500000       1.13960000      -1.45360000
C        0.44860000      -2.18260000      -1.28160000
O        0.51390000      -2.97690000      -0.36940000
C        0.31210000      -2.75490000      -2.70220000
O        0.24160000      -2.07940000      -3.69470000
H       -2.04290000       0.09900000      -0.26990000
H       -1.70800000      -1.48380000       0.45430000
H       -1.74220000      -0.03860000       1.46700000
H        0.28050000       0.85610000       0.34680000
H        0.62640000      -0.74000000       1.02020000
H       -0.06760000      -0.22510000      -1.92710000
H        2.66380000      -0.73080000      -0.66770000
H        2.30170000      -0.62620000      -2.40240000
H        2.15810000       1.47270000      -0.55170000
H        0.28300000      -3.86520000      -2.71130000
