15
Properties=species:S:1:pos:R:3 gdb_18120=T pbc="F F F"
C        0.00580000       1.40420000       0.06610000
O        1.30400000       1.93420000      -0.06990000
C        2.00870000       0.91660000      -0.78350000
C        3.46920000       0.61220000      -0.47210000
C        3.43390000      -0.95780000      -0.49770000
N        2.07470000      -1.35550000      -0.04860000
C        1.37090000      -0.32010000      -0.21810000
O        0.12200000      -0.03650000       0.19140000
H       -0.45370000       1.79830000       0.97460000
H       -0.61810000       1.61560000      -0.81540000
H        1.82660000       1.02070000      -1.86580000
H        4.18390000       1.04650000      -1.17360000
H        3.70420000       0.96180000       0.53770000
H        3.63320000      -1.34640000      -1.50490000
H        4.17950000      -1.39870000       0.16920000
