14
Properties=species:S:1:pos:R:3 gdb_19463=T pbc="F F F"
O       -0.01360000      -0.05760000      -0.18010000
C        0.02560000       1.12480000       0.05590000
C        1.30100000       1.92880000       0.03750000
C        1.18180000       3.33610000      -0.65350000
O        0.47450000       3.80090000       0.54250000
C        1.45200000       2.94880000       1.22450000
C        2.78230000       3.63830000       0.86420000
C        2.59590000       3.90550000      -0.42870000
H       -0.88770000       1.70320000       0.30540000
H        2.15480000       1.29890000      -0.21520000
H        0.65500000       3.50540000      -1.59130000
H        1.20920000       2.71140000       2.25910000
H        3.61450000       3.83280000       1.52340000
H        3.22780000       4.38730000      -1.15910000
