20
Properties=species:S:1:pos:R:3 gdb_91007=T pbc="F F F"
C        0.07060000       1.56690000       0.07260000
C        0.03670000       0.05140000      -0.01500000
C        0.74290000      -0.51790000      -1.24970000
N        1.08770000      -1.94480000      -1.11600000
C        0.30060000      -2.70490000      -0.04160000
C        1.51100000      -3.65650000       0.04740000
C        2.07730000      -2.22220000       0.01200000
C        0.99150000      -1.82010000       1.05150000
O        0.63970000      -0.47360000       1.17010000
H        1.10450000       1.92470000       0.09920000
H       -0.43060000       2.01190000      -0.79290000
H       -0.43470000       1.91050000       0.97960000
H       -1.01230000      -0.28770000      -0.03560000
H        0.10060000      -0.39280000      -2.12960000
H        1.67450000       0.02820000      -1.44790000
H       -0.75150000      -2.96510000      -0.16780000
H        1.63490000      -4.22250000       0.97240000
H        1.69560000      -4.24560000      -0.85020000
H        3.11670000      -1.89530000      -0.05740000
H        1.08350000      -2.22660000       2.06380000
