15
Properties=species:S:1:pos:R:3 gdb_132088=T pbc="F F F"
C       -0.04220000       1.51520000       0.05640000
C        0.01070000       0.02330000      -0.02960000
C        0.17010000      -0.68080000      -1.18340000
F        0.29510000      -0.06230000      -2.36850000
C        0.20360000      -2.09940000      -1.12310000
N        0.09130000      -2.78870000      -0.02750000
C       -0.07390000      -2.11260000       1.18210000
N       -0.19740000      -2.64770000       2.33550000
N       -0.10620000      -0.70500000       1.11350000
H        0.06460000       1.95350000      -0.93530000
H       -0.99450000       1.84490000       0.48640000
H        0.76120000       1.89480000       0.69740000
H        0.33190000      -2.64700000      -2.05750000
H       -0.15560000      -3.65920000       2.23040000
H       -0.22660000      -0.23930000       2.00170000
