18
Properties=species:S:1:pos:R:3 gdb_9781=T pbc="F F F"
C        0.09320000       1.40960000      -0.33260000
C        0.04090000      -0.08900000       0.02570000
C        0.66160000      -0.34470000       1.32810000
C        1.11500000      -0.54080000       2.42520000
C       -1.39980000      -0.60990000       0.04670000
O       -2.20700000       0.00050000       1.01440000
C       -2.09560000      -0.92900000      -1.23730000
C       -1.68170000      -2.04910000      -0.29650000
H        1.11960000       1.78310000      -0.30240000
H       -0.30940000       1.56750000      -1.33730000
H       -0.51070000       1.98280000       0.37420000
H        0.59120000      -0.65510000      -0.73690000
H        1.54620000      -0.72080000       3.37890000
H       -1.81570000      -0.20240000       1.87410000
H       -3.14990000      -0.68360000      -1.28910000
H       -1.55220000      -0.80810000      -2.16840000
H       -0.85790000      -2.69270000      -0.58640000
H       -2.46920000      -2.53720000       0.26610000
