21
Properties=species:S:1:pos:R:3 gdb_109775=T pbc="F F F"
C        0.29680000       1.23500000       0.10230000
O       -0.24090000      -0.01710000      -0.30080000
C        0.53270000      -0.63670000      -1.29270000
C        1.50140000      -1.68620000      -0.79770000
O        1.59150000      -1.88050000       0.57990000
C        0.24610000      -2.09740000      -1.54970000
C       -0.89410000      -2.83330000      -0.86560000
C       -2.26020000      -2.40210000      -1.40210000
O       -0.71270000      -4.24340000      -0.96530000
H        1.31430000       1.12940000       0.50140000
H        0.32110000       1.94180000      -0.73910000
H       -0.36060000       1.62950000       0.88010000
H        0.78850000       0.01520000      -2.12810000
H        2.46600000      -1.80930000      -1.27980000
H        0.89730000      -1.34030000       0.98000000
H        0.39630000      -2.40340000      -2.58440000
H       -0.85390000      -2.63420000       0.20840000
H       -2.32480000      -2.56860000      -2.48520000
H       -3.05360000      -2.98050000      -0.92020000
H       -2.42730000      -1.33820000      -1.21280000
H       -0.80740000      -4.48410000      -1.89350000
