19
Properties=species:S:1:pos:R:3 gdb_127146=T pbc="F F F"
C        0.33240000       1.33150000      -0.08590000
N       -0.02700000      -0.07950000       0.01090000
C        0.62610000      -0.71480000       1.14730000
C       -1.47630000      -0.27620000       0.03580000
C       -2.08720000      -0.01070000      -1.30390000
C       -3.27780000       0.52530000      -1.73790000
N       -3.32090000       0.47080000      -3.10020000
N       -2.21800000      -0.06480000      -3.53920000
N       -1.47360000      -0.36490000      -2.45860000
H        1.41560000       1.42710000      -0.20520000
H       -0.14940000       1.78350000      -0.95650000
H        0.03320000       1.90830000       0.80900000
H        0.32370000      -0.28340000       2.11980000
H        0.39390000      -1.78410000       1.16240000
H        1.71050000      -0.60310000       1.05440000
H       -1.66300000      -1.31980000       0.31920000
H       -1.98270000       0.34750000       0.79550000
H       -4.09040000       0.93730000      -1.16150000
H       -0.54780000      -0.75250000      -2.55550000
