14
Properties=species:S:1:pos:R:3 gdb_101993=T pbc="F F F"
C        0.49290000       0.89570000      -0.70400000
O       -0.38130000       0.20570000       0.17590000
C        0.26320000      -0.44020000       1.24590000
C       -0.86760000      -0.89680000       2.20030000
O       -0.71190000      -1.07510000       3.37230000
C        1.04920000      -1.60360000       0.82820000
C        1.66840000      -2.57930000       0.47480000
C        2.37470000      -3.67750000       0.07500000
N        2.97670000      -4.60950000      -0.26830000
H        1.19000000       0.20930000      -1.20110000
H       -0.13720000       1.37520000      -1.45470000
H        1.06900000       1.66440000      -0.16970000
H        0.91340000       0.24680000       1.81140000
H       -1.83500000      -1.02830000       1.67430000
