18
Properties=species:S:1:pos:R:3 gdb_87442=T pbc="F F F"
C       -0.13340000       1.47300000      -0.08580000
N        0.02590000       0.02620000      -0.01540000
C        1.38730000      -0.49600000      -0.25110000
C        0.77070000      -0.51660000       1.09070000
C        1.18710000       0.09590000       2.43000000
C       -0.03730000      -0.56170000       3.15610000
O        0.76220000      -1.18250000       4.20340000
C        1.56190000      -1.31660000       2.99190000
C        0.34300000      -1.61430000       2.05800000
H        0.73850000       2.03340000       0.29060000
H       -0.30420000       1.76670000      -1.12620000
H       -1.01010000       1.77100000       0.49870000
H        1.44950000      -1.39250000      -0.86290000
H        2.18100000       0.23040000      -0.42680000
H        1.66560000       1.04160000       2.67890000
H       -1.00790000      -0.13980000       3.41310000
H        2.53350000      -1.80500000       3.05040000
H       -0.13120000      -2.57700000       1.87710000
