12
Properties=species:S:1:pos:R:3 gdb_23710=T pbc="F F F"
N       -0.00800000       1.37740000       0.17650000
C       -0.00920000       0.00090000       0.06590000
C       -1.20240000      -0.74460000       0.03970000
N       -1.19530000      -2.07220000      -0.01310000
C       -0.01650000      -2.65470000      -0.03390000
F        0.00680000      -3.98510000      -0.08430000
C        1.17750000      -1.94470000      -0.01090000
N        1.17880000      -0.61450000       0.03420000
H        0.87210000       1.80640000      -0.06800000
H       -0.81610000       1.86300000      -0.17960000
H       -2.17210000      -0.25310000       0.06270000
H        2.13440000      -2.45730000      -0.03540000
