25
Properties=species:S:1:pos:R:3 gdb_119984=T pbc="F F F"
C       -0.13200000       1.41780000      -0.06070000
C       -0.23230000      -0.05580000       0.29350000
O       -1.29690000      -0.62460000      -0.45430000
C       -1.46620000      -1.98980000      -0.22640000
C       -2.42030000      -2.45690000       0.85830000
C       -3.09930000      -1.47070000       1.78530000
C       -2.79470000      -2.57390000      -0.61430000
C       -3.86300000      -1.72020000      -1.27030000
C       -3.66160000      -1.61250000      -2.78690000
H        0.69110000       1.88650000       0.48700000
H        0.04710000       1.54320000      -1.13240000
H       -1.05910000       1.93950000       0.19400000
H        0.70950000      -0.57660000       0.05400000
H       -0.41040000      -0.18870000       1.37130000
H       -0.56330000      -2.57650000      -0.40590000
H       -2.15100000      -3.39670000       1.33480000
H       -3.15820000      -0.47550000       1.33920000
H       -4.11750000      -1.78990000       2.03450000
H       -2.54480000      -1.37960000       2.72580000
H       -2.74390000      -3.58240000      -1.02050000
H       -4.84970000      -2.15160000      -1.05660000
H       -3.85930000      -0.71680000      -0.83810000
H       -4.45720000      -1.02160000      -3.25200000
H       -2.70460000      -1.13240000      -3.01230000
H       -3.66160000      -2.60130000      -3.25960000
