19
Properties=species:S:1:pos:R:3 gdb_87291=T pbc="F F F"
O        0.21920000       1.12580000       0.20650000
C       -0.09270000      -0.21240000       0.27770000
C       -0.83990000      -0.81060000       1.40730000
C       -1.54790000      -0.73800000       0.04260000
C       -2.54640000       0.33850000      -0.08550000
O       -2.47970000       1.41700000       0.47930000
C       -1.79660000      -1.95840000      -0.79530000
C       -1.15470000      -3.29410000      -0.51770000
C       -2.63080000      -3.11210000      -0.28090000
H       -0.56120000       1.62100000       0.50920000
H        0.66840000      -0.81680000      -0.20520000
H       -0.56260000      -1.79360000       1.77170000
H       -1.22780000      -0.13080000       2.15910000
H       -3.38550000       0.12570000      -0.78050000
H       -1.92460000      -1.72950000      -1.85100000
H       -0.83690000      -3.88280000      -1.37070000
H       -0.51050000      -3.39830000       0.34820000
H       -2.96810000      -3.06100000       0.74900000
H       -3.32990000      -3.58850000      -0.95870000
