23
Properties=species:S:1:pos:R:3 gdb_105051=T pbc="F F F"
C        0.06670000       1.55170000       0.01720000
C       -0.06650000       0.04090000      -0.20300000
C       -1.45720000      -0.56890000      -0.01530000
C       -2.49220000       0.13300000       0.83500000
C       -2.63530000       0.12310000      -0.66750000
C       -1.49340000      -2.08930000       0.03490000
O       -2.78910000      -2.64320000      -0.00320000
C       -0.40700000      -2.94920000      -0.56810000
C       -0.57850000      -2.86440000       0.93750000
H        1.08930000       1.86940000      -0.20840000
H       -0.60180000       2.12880000      -0.62920000
H       -0.14120000       1.83200000       1.05380000
H        0.27700000      -0.19490000      -1.21850000
H        0.63740000      -0.45640000       0.47580000
H       -3.17250000      -0.49740000       1.39540000
H       -2.23140000       1.06540000       1.32080000
H       -2.44930000       1.04340000      -1.21010000
H       -3.43260000      -0.47910000      -1.08640000
H       -3.08510000      -2.62960000      -0.91960000
H       -0.72810000      -3.86490000      -1.05270000
H        0.46300000      -2.48210000      -1.01370000
H        0.17030000      -2.33340000       1.51380000
H       -1.02050000      -3.71670000       1.43970000
