19
Properties=species:S:1:pos:R:3 gdb_126685=T pbc="F F F"
C       -0.16560000       1.55190000       0.08210000
C       -0.01630000       0.02650000      -0.01850000
N       -1.26580000      -0.72360000      -0.01280000
C       -2.06310000      -0.68350000      -1.22510000
C       -1.93890000      -0.83650000       1.19370000
C       -1.50390000      -0.60210000       2.47040000
O       -2.47630000      -0.90730000       3.36020000
N       -3.59200000      -1.34030000       2.68110000
C       -3.27760000      -1.29430000       1.40950000
H        0.81880000       2.03020000       0.10210000
H       -0.71530000       1.95280000      -0.77530000
H       -0.70190000       1.83800000       0.99140000
H        0.51730000      -0.23320000      -0.93960000
H        0.60140000      -0.34590000       0.80730000
H       -2.70970000      -1.56450000      -1.28360000
H       -2.69920000       0.21230000      -1.31170000
H       -1.39350000      -0.71140000      -2.08870000
H       -0.58210000      -0.23910000       2.89150000
H       -4.01560000      -1.58920000       0.67850000
