16
Properties=species:S:1:pos:R:3 gdb_125421=T pbc="F F F"
C       -0.81400000       1.09940000       0.55090000
C       -0.15490000      -0.16040000       0.10240000
N       -0.71650000      -1.16120000      -0.54990000
C        0.31100000      -2.04950000      -0.73330000
N        1.47060000      -1.65670000      -0.23020000
N        1.15200000      -0.45360000       0.29530000
C        0.10600000      -3.33460000      -1.44720000
N       -1.22760000      -3.57910000      -1.70490000
N        1.10910000      -4.07940000      -1.71930000
H       -0.57630000       1.32880000       1.59440000
H       -0.50180000       1.95390000      -0.05950000
H       -1.89440000       0.98750000       0.45470000
H        1.86410000       0.08680000       0.75970000
H       -1.84890000      -2.78710000      -1.63210000
H       -1.44380000      -4.25550000      -2.41860000
H        0.80690000      -4.92700000      -2.20470000
