18
Properties=species:S:1:pos:R:3 gdb_9803=T pbc="F F F"
C        0.10960000       1.43810000       0.19280000
C        0.00150000      -0.08720000       0.01190000
C       -1.46240000      -0.49480000      -0.03600000
O       -2.02990000      -1.10270000       0.83560000
C        0.70810000      -0.56100000      -1.25640000
O        0.25260000       0.04770000      -2.43940000
C        2.15920000      -0.96950000      -1.19500000
C        1.07180000      -2.00640000      -1.40820000
H        1.15910000       1.75040000       0.19090000
H       -0.40900000       1.97030000      -0.61200000
H       -0.33750000       1.75180000       1.13980000
H        0.44340000      -0.59080000       0.87760000
H       -1.99230000      -0.17820000      -0.96140000
H        0.62330000       0.93600000      -2.48010000
H        2.77390000      -0.71690000      -2.05200000
H        2.67160000      -0.94190000      -0.23920000
H        0.83690000      -2.68540000      -0.59600000
H        0.97400000      -2.42680000      -2.40190000
