17
Properties=species:S:1:pos:R:3 gdb_45565=T pbc="F F F"
O        0.01630000      -0.03850000       0.19630000
C       -0.05330000       1.15390000       0.16760000
C       -1.29160000       2.03920000       0.21790000
C       -0.75670000       3.45170000       0.44560000
O       -0.78560000       3.83840000       1.81710000
C        0.53230000       3.80070000       2.36720000
C        1.46750000       4.06100000       1.18320000
C        0.73870000       3.34480000       0.05030000
O        1.05710000       1.94270000       0.06250000
H       -1.81570000       1.94770000      -0.73940000
H       -1.97170000       1.71460000       1.00630000
H       -1.29800000       4.20820000      -0.12940000
H        0.59040000       4.56090000       3.15030000
H        0.73710000       2.82040000       2.82120000
H        1.51920000       5.13160000       0.96140000
H        2.48030000       3.67960000       1.32500000
H        0.96700000       3.73680000      -0.94370000
