16
Properties=species:S:1:pos:R:3 gdb_130427=T pbc="F F F"
N        0.20260000       1.41630000      -0.14580000
C        0.00810000      -0.02210000      -0.09600000
C       -1.41890000      -0.51130000       0.00720000
N       -2.39680000       0.33510000       0.04680000
C       -3.67880000      -0.16440000       0.14110000
N       -4.01540000      -1.41310000       0.19520000
N       -2.98890000      -2.28650000       0.15320000
C       -1.63820000      -1.97140000       0.05940000
N       -0.65600000      -2.79400000       0.01890000
H       -0.32540000       1.79620000      -0.92730000
H       -0.22340000       1.83790000       0.67560000
H        0.45790000      -0.49450000      -0.97870000
H        0.56730000      -0.44960000       0.74600000
H       -4.48630000       0.55680000       0.17320000
H       -3.26830000      -3.25630000       0.19640000
H       -0.96420000      -3.76710000       0.06390000
