11
Properties=species:S:1:pos:R:3 gdb_497=T pbc="F F F"
O        0.05540000       0.21290000      -0.91570000
C        0.04890000       1.25590000      -0.29810000
N        1.12120000       1.78690000       0.34950000
C        2.43980000       1.16650000       0.29820000
C        3.48630000       2.11970000      -0.05520000
C        4.34330000       2.91880000      -0.32000000
H       -0.85060000       1.89240000      -0.18950000
H        1.03000000       2.68500000       0.79670000
H        2.68120000       0.69290000       1.25950000
H        2.36730000       0.36420000      -0.44300000
H        5.10680000       3.61380000      -0.56920000
