18
Properties=species:S:1:pos:R:3 gdb_51588=T pbc="F F F"
O       -0.80720000       0.61350000       0.30240000
C       -0.11810000       1.59940000       0.25110000
C        1.31270000       1.62900000      -0.25090000
C        1.48010000       2.66700000      -1.34550000
N        1.54160000       4.07750000      -0.92100000
C        2.71090000       3.47570000      -1.56890000
C        3.98040000       3.34840000      -0.73900000
C        4.81720000       4.54030000      -0.83340000
C        5.49460000       5.52740000      -0.93620000
H       -0.50110000       2.59240000       0.57590000
H        1.94990000       1.88890000       0.60250000
H        1.58430000       0.62900000      -0.60160000
H        0.90580000       2.44580000      -2.24450000
H        1.03450000       4.68100000      -1.56130000
H        2.90340000       3.75400000      -2.60350000
H        3.71790000       3.17030000       0.30870000
H        4.54900000       2.47290000      -1.07990000
H        6.09760000       6.39800000      -1.01170000
