15
Properties=species:S:1:pos:R:3 gdb_83863=T pbc="F F F"
O        0.07510000       1.33960000      -0.14120000
C       -0.02420000      -0.03190000      -0.03270000
C       -0.44670000      -0.63940000       1.26540000
O       -0.80750000       0.32450000       2.22580000
C       -2.19750000       0.39360000       2.39330000
O       -2.85760000       0.82470000       1.21000000
C       -2.63710000       0.08150000       0.07740000
O       -3.40350000       0.15030000      -0.83890000
C       -1.39270000      -0.74030000       0.07940000
H       -0.15240000       1.70800000       0.72440000
H        0.71180000      -0.55260000      -0.63640000
H        0.02990000      -1.52400000       1.67850000
H       -2.59810000      -0.58180000       2.70110000
H       -2.39970000       1.15040000       3.15140000
H       -1.48540000      -1.68130000      -0.44830000
