13
Properties=species:S:1:pos:R:3 gdb_1496=T pbc="F F F"
C        0.04860000       1.50740000       0.12600000
C       -0.00160000      -0.00110000      -0.00670000
O        0.68180000      -0.55670000       1.13950000
C        0.74230000      -1.88730000       1.20190000
N        0.24550000      -2.66680000       0.33270000
C        1.45060000      -2.32440000       2.39460000
N        2.00230000      -2.74020000       3.32100000
H        1.08170000       1.86450000       0.14480000
H       -0.46020000       1.96640000      -0.72660000
H       -0.44810000       1.83640000       1.04270000
H       -1.02630000      -0.38560000      -0.02100000
H        0.49510000      -0.35760000      -0.91450000
H        0.40370000      -3.64270000       0.57240000
