23
Properties=species:S:1:pos:R:3 gdb_116356=T pbc="F F F"
C        0.07810000       1.56910000       0.05700000
C        0.04010000       0.03900000       0.02590000
C        0.67490000      -0.54840000      -1.24240000
O        2.00310000      -0.04630000      -1.28710000
C        2.82420000      -0.67720000      -2.25080000
C        3.04210000      -2.14450000      -1.88720000
C        1.71340000      -2.77780000      -1.57660000
C        0.61730000      -2.06680000      -1.30200000
C       -0.72540000      -2.71470000      -1.09020000
H        1.10620000       1.93280000       0.00230000
H       -0.47360000       1.99370000      -0.78960000
H       -0.37640000       1.95120000       0.97620000
H        0.57090000      -0.37080000       0.89380000
H       -0.99730000      -0.30450000       0.09240000
H        0.11320000      -0.15610000      -2.11520000
H        2.36740000      -0.60500000      -3.25190000
H        3.76380000      -0.11710000      -2.26710000
H        3.53070000      -2.66850000      -2.71880000
H        3.72430000      -2.22320000      -1.02940000
H        1.65170000      -3.86370000      -1.60810000
H       -0.67850000      -3.78620000      -1.30220000
H       -1.08730000      -2.59060000      -0.06290000
H       -1.48820000      -2.27460000      -1.74580000
