18
Properties=species:S:1:pos:R:3 gdb_12938=T pbc="F F F"
C       -0.01590000       1.56090000       0.04830000
C        0.11240000       0.05030000       0.06500000
C        1.35100000      -0.72950000      -0.22750000
C        2.59830000      -0.00870000       0.30010000
C        1.95920000      -0.10810000       1.70970000
O        2.39510000       0.06130000       2.81520000
C        0.71220000      -0.77410000       1.20330000
C       -0.05420000      -1.83010000       1.94850000
H        0.87020000       2.06410000       0.44210000
H       -0.18040000       1.92250000      -0.97280000
H       -0.86970000       1.87890000       0.65540000
H       -0.78130000      -0.44820000      -0.30980000
H        1.37130000      -1.54510000      -0.93960000
H        3.50530000      -0.61980000       0.26810000
H        2.82600000       0.98210000      -0.10220000
H       -0.65700000      -1.38430000       2.74720000
H       -0.73340000      -2.36990000       1.28120000
H        0.62060000      -2.55670000       2.41250000
