15
Properties=species:S:1:pos:R:3 gdb_130340=T pbc="F F F"
N       -0.07060000       1.56700000      -0.07680000
C        0.04490000       0.13210000      -0.04130000
C       -1.31690000      -0.66600000       0.14460000
N       -0.93560000      -1.45340000      -1.04600000
C        0.17270000      -0.70970000      -1.32190000
N        0.69050000      -0.91510000      -2.48810000
N       -0.16680000      -1.90160000      -2.98260000
C       -1.26390000      -2.21900000      -2.17490000
O       -2.19060000      -2.96100000      -2.40040000
H        0.84550000       1.99900000      -0.13520000
H       -0.59310000       1.86930000      -0.89380000
H        0.78210000      -0.14480000       0.71620000
H       -1.42360000      -1.25460000       1.05710000
H       -2.19930000      -0.04090000      -0.01090000
H       -0.06030000      -2.21530000      -3.93180000
