21
Properties=species:S:1:pos:R:3 gdb_53669=T pbc="F F F"
C       -0.60720000       0.81760000       0.91460000
C       -0.25410000      -0.49430000       0.39210000
C        0.03640000      -1.58220000      -0.03490000
C        0.41330000      -2.89120000      -0.57260000
O       -0.67450000      -3.70560000      -0.98830000
C       -1.41550000      -4.25500000       0.06030000
C       -2.60260000      -3.50860000       0.61890000
C       -2.80250000      -4.72490000      -0.26580000
C       -3.36320000      -4.57260000      -1.66280000
H        0.21700000       1.24550000       1.49590000
H       -0.84510000       1.52070000       0.10890000
H       -1.47990000       0.75950000       1.57440000
H        1.03140000      -2.75880000      -1.46740000
H        1.02600000      -3.43150000       0.16710000
H       -0.81600000      -4.85360000       0.74840000
H       -2.81400000      -3.57730000       1.68060000
H       -2.80820000      -2.54190000       0.17400000
H       -3.10560000      -5.63490000       0.24570000
H       -2.96970000      -3.67480000      -2.14440000
H       -3.09590000      -5.42910000      -2.29130000
H       -4.45600000      -4.50130000      -1.63890000
