16
Properties=species:S:1:pos:R:3 gdb_49510=T pbc="F F F"
O       -0.03470000       0.00800000       0.37970000
C       -0.00390000       1.19160000       0.12560000
N        1.07790000       1.86240000      -0.36560000
C        1.51410000       3.26300000      -0.07180000
C        2.56510000       2.65260000       0.90260000
C        2.50900000       1.49330000      -0.14650000
C        3.11590000       2.20890000      -1.36970000
O        3.96420000       1.83760000      -2.12680000
C        2.34950000       3.55840000      -1.33410000
H       -0.88570000       1.85960000       0.20900000
H        0.75510000       3.97770000       0.24290000
H        3.51050000       3.18360000       1.04500000
H        2.13160000       2.34680000       1.85570000
H        2.75720000       0.45640000       0.05430000
H        1.74210000       3.69310000      -2.23180000
H        3.03130000       4.40660000      -1.23180000
