17
Properties=species:S:1:pos:R:3 gdb_70376=T pbc="F F F"
C       -0.06060000       1.56530000      -0.00830000
C        0.02090000       0.04570000       0.06030000
O        1.08360000      -0.49800000      -0.80370000
C        1.64380000      -1.23410000       0.28730000
C        2.17460000      -0.28750000       1.33040000
C        0.69880000      -0.63460000       1.28270000
O        0.02150000      -1.23290000       2.31830000
C       -1.25940000      -0.57120000      -0.26870000
C       -2.32600000      -1.05490000      -0.53660000
H        0.89520000       2.01900000       0.26270000
H       -0.32020000       1.87850000      -1.02320000
H       -0.83740000       1.93050000       0.67010000
H        1.98910000      -2.24380000       0.10490000
H        2.68580000      -0.76900000       2.15930000
H        2.56390000       0.68310000       1.03880000
H       -0.02180000      -0.61370000       3.05560000
H       -3.26220000      -1.49590000      -0.77550000
