17
Properties=species:S:1:pos:R:3 gdb_46846=T pbc="F F F"
O        0.01260000       0.00130000       0.36200000
C        0.01260000       1.14740000       0.00860000
O       -1.16780000       1.74000000      -0.32320000
C       -1.27360000       3.07330000      -0.87080000
C        0.03370000       3.87590000      -0.83070000
C        1.15430000       2.93130000      -1.30900000
C        1.25570000       2.03440000      -0.05920000
C        1.13200000       3.06820000       1.06030000
C        0.44540000       4.11950000       0.61580000
H       -1.61680000       2.95970000      -1.90610000
H       -2.06690000       3.56770000      -0.30030000
H       -0.08710000       4.78210000      -1.43070000
H        0.90110000       2.38330000      -2.22230000
H        2.09110000       3.47180000      -1.46680000
H        2.13450000       1.39280000      -0.00310000
H        1.48930000       2.89400000       2.06720000
H        0.13500000       4.98200000       1.19280000
