21
Properties=species:S:1:pos:R:3 gdb_78116=T pbc="F F F"
C       -0.06020000       1.44830000       0.03670000
C        0.07810000      -0.05970000       0.00020000
C        0.73910000      -0.65840000      -1.22770000
C        1.46240000      -0.64130000       0.10980000
O        2.57180000       0.11450000       0.45050000
C        1.40410000      -2.17180000       0.19860000
C        0.68990000      -2.19010000      -1.20780000
C       -0.66330000      -2.88300000      -1.31290000
O        1.56220000      -2.64220000      -2.23450000
H        0.81090000       1.93430000      -0.41050000
H       -0.95200000       1.77470000      -0.50830000
H       -0.15120000       1.81230000       1.06670000
H       -0.75040000      -0.59570000       0.46400000
H        0.91490000      -0.07420000      -2.12320000
H        2.49740000       0.36220000       1.37910000
H        2.39410000      -2.62450000       0.11520000
H        0.86570000      -2.59710000       1.05360000
H       -1.37280000      -2.51450000      -0.56690000
H       -1.09030000      -2.72550000      -2.30800000
H       -0.55490000      -3.96370000      -1.15540000
H        1.63700000      -3.59980000      -2.15580000
