11
Properties=species:S:1:pos:R:3 gdb_130910=T pbc="F F F"
O       -0.12300000      -0.01940000      -0.00010000
C       -0.02900000       1.17690000       0.00730000
C        1.26560000       1.93260000      -0.00130000
N        2.36870000       1.24750000      -0.01870000
O        3.51970000       1.95190000      -0.02590000
C        3.57450000       3.38390000      -0.01490000
O        4.65880000       3.86720000      -0.02200000
N        2.36540000       4.07320000       0.00270000
C        1.28390000       3.37570000       0.00900000
H       -0.92180000       1.83930000       0.02210000
H        0.33480000       3.91510000       0.02300000
