20
Properties=species:S:1:pos:R:3 gdb_102705=T pbc="F F F"
O       -0.09990000       1.32700000       0.23020000
C       -0.03210000      -0.07730000       0.03070000
C       -1.45630000      -0.62020000      -0.10580000
C       -2.17830000       0.07790000      -1.26050000
O       -3.53950000      -0.35830000      -1.28830000
C       -1.41110000      -2.14920000      -0.26910000
N       -2.71320000      -2.77090000      -0.10680000
C       -2.91250000      -3.85610000       0.67940000
O       -2.04970000      -4.45520000       1.29100000
H        0.79670000       1.66480000       0.31020000
H        0.54830000      -0.32140000      -0.87530000
H        0.45980000      -0.57660000       0.87870000
H       -1.99610000      -0.38520000       0.81970000
H       -2.11980000       1.16280000      -1.12030000
H       -1.67260000      -0.17050000      -2.20860000
H       -3.98910000       0.09530000      -2.00660000
H       -0.98790000      -2.39760000      -1.25420000
H       -0.75950000      -2.60100000       0.48400000
H       -3.49510000      -2.30900000      -0.54730000
H       -3.98100000      -4.15000000       0.70550000
