17
Properties=species:S:1:pos:R:3 gdb_77887=T pbc="F F F"
C       -0.10330000       1.25410000      -0.40830000
N       -0.01740000      -0.02460000       0.28000000
C       -1.08750000      -1.02460000       0.26270000
C       -1.06910000      -1.84220000      -0.99780000
O       -0.81820000      -1.24000000      -2.23190000
C       -0.00480000      -2.12110000       0.03350000
O        0.18400000      -3.38670000       0.52230000
C        0.98640000      -0.98660000       0.04160000
N        2.24480000      -0.97880000      -0.07720000
H        0.86980000       1.75120000      -0.35240000
H       -0.39080000       1.14120000      -1.46000000
H       -0.83030000       1.89470000       0.09930000
H       -1.91620000      -0.97160000       0.95760000
H       -1.82660000      -2.63020000      -1.01150000
H       -0.18110000      -1.78340000      -2.70880000
H        0.77400000      -3.32760000       1.28300000
H        2.62180000      -0.02990000      -0.03170000
