20
Properties=species:S:1:pos:R:3 gdb_108145=T pbc="F F F"
O        0.02130000       1.28150000       0.47360000
C        0.01870000       0.01850000      -0.17240000
C       -1.37320000      -0.54000000      -0.27160000
C       -2.55810000       0.21570000      -0.86500000
C       -3.39980000      -0.40510000       0.27880000
C       -4.11200000      -1.68580000      -0.14290000
C       -2.93860000      -2.60260000      -0.57630000
C       -1.73110000      -1.93970000       0.07730000
N       -2.13190000      -0.85430000       1.01120000
H       -0.44520000       1.14830000       1.30820000
H        0.44110000       0.18170000      -1.17070000
H        0.66820000      -0.70060000       0.35100000
H       -2.41980000       1.29140000      -0.74230000
H       -2.85120000       0.00170000      -1.89840000
H       -4.00130000       0.28180000       0.87400000
H       -4.64220000      -2.11830000       0.71180000
H       -4.84110000      -1.51400000      -0.94020000
H       -3.06420000      -3.62760000      -0.21790000
H       -2.83250000      -2.65200000      -1.66470000
H       -0.92870000      -2.56650000       0.45470000
