21
Properties=species:S:1:pos:R:3 gdb_113245=T pbc="F F F"
C        0.52410000       1.54510000       0.03730000
C       -0.16730000       0.18580000      -0.12120000
C        0.36900000      -0.58060000      -1.31000000
N        1.64870000      -1.29470000      -1.13710000
C        0.43040000      -2.06730000      -1.42610000
C       -0.04070000      -3.00120000      -0.33050000
C        0.26480000      -2.63270000      -2.84000000
C        1.08880000      -3.82040000      -3.07960000
N        1.74520000      -4.75420000      -3.26030000
H        1.60080000       1.41210000       0.18070000
H        0.37710000       2.17230000      -0.84920000
H        0.13020000       2.09050000       0.89980000
H       -0.02690000      -0.40290000       0.78960000
H       -1.24860000       0.32710000      -0.24740000
H        0.23430000      -0.05250000      -2.25620000
H        2.23940000      -1.20900000      -1.96050000
H        0.17630000      -2.58790000       0.65460000
H       -1.11870000      -3.18360000      -0.40570000
H        0.47220000      -3.96570000      -0.40720000
H       -0.78360000      -2.90140000      -3.01870000
H        0.52830000      -1.87560000      -3.58700000
