19
Properties=species:S:1:pos:R:3 gdb_113469=T pbc="F F F"
C       -0.48590000       0.99820000      -0.33670000
O        0.45900000       0.00530000       0.02480000
C        0.96400000      -0.66070000      -1.08730000
C        1.59610000      -2.00000000      -0.85310000
C        0.26790000      -1.90420000      -1.56080000
C       -1.06790000      -2.50670000      -1.05520000
C       -1.37740000      -2.85750000      -2.52330000
O       -1.33760000      -1.64200000      -3.27970000
C       -0.09360000      -2.30090000      -2.98000000
H       -0.00710000       1.82270000      -0.88670000
H       -1.28510000       0.58520000      -0.96660000
H       -0.91190000       1.39100000       0.58940000
H        1.40990000      -0.00950000      -1.84230000
H        2.48430000      -2.25460000      -1.42270000
H        1.58370000      -2.37670000       0.16470000
H       -0.91600000      -3.39040000      -0.42920000
H       -1.77630000      -1.83090000      -0.57130000
H       -1.97730000      -3.66940000      -2.91720000
H        0.54630000      -2.56440000      -3.81440000
