15
Properties=species:S:1:pos:R:3 gdb_11807=T pbc="F F F"
O        0.07430000       1.28620000      -0.25380000
C        0.07990000      -0.10320000      -0.06060000
C        0.11770000      -0.60090000       1.37820000
N        0.92620000      -0.45220000       2.32360000
O       -1.09630000      -1.24910000       1.29830000
C       -1.29850000      -0.75500000      -0.05560000
C       -2.60320000      -0.21900000      -0.51110000
C       -2.05120000      -1.52560000      -1.07640000
H        0.83130000       1.64660000       0.22230000
H        0.80700000      -0.61030000      -0.71020000
H        0.59740000      -0.89680000       3.18220000
H       -3.43690000      -0.28920000       0.17860000
H       -2.58840000       0.67140000      -1.12970000
H       -1.67290000      -1.54000000      -2.09330000
H       -2.52480000      -2.44590000      -0.75250000
