18
Properties=species:S:1:pos:R:3 gdb_52445=T pbc="F F F"
O        0.28040000       0.04010000      -0.32300000
C        0.27900000       1.23260000      -0.35070000
O        0.84170000       1.98580000       0.61440000
C        0.82180000       3.40880000       0.46200000
C        2.22890000       3.93000000       0.18810000
C        2.27250000       5.45910000       0.11660000
C        3.69940000       5.97910000      -0.14810000
C        3.75680000       7.43730000      -0.22260000
N        3.78030000       8.59110000      -0.27850000
H       -0.18180000       1.84140000      -1.15430000
H        0.13360000       3.69160000      -0.34600000
H        0.42720000       3.81870000       1.39710000
H        2.89460000       3.56720000       0.98000000
H        2.59310000       3.49670000      -0.75190000
H        1.60890000       5.82220000      -0.67650000
H        1.90400000       5.89200000       1.05340000
H        4.37850000       5.64330000       0.64420000
H        4.08600000       5.56710000      -1.08760000
