17
Properties=species:S:1:pos:R:3 gdb_40463=T pbc="F F F"
C        0.17550000       1.40530000      -0.00370000
O        1.13320000       0.39940000      -0.33410000
C       -0.20380000      -0.01400000      -0.04140000
C       -0.37730000      -0.80660000       1.20440000
C        0.36740000      -0.52690000       2.53750000
C       -0.01010000      -1.96340000       2.89600000
C       -1.37870000      -2.18040000       2.22470000
O       -1.77210000      -0.94820000       1.61880000
C       -0.13700000      -2.35680000       1.42770000
H        0.32560000       1.89610000       0.95570000
H       -0.12270000       2.05640000      -0.82360000
H       -0.76830000      -0.37760000      -0.89990000
H        1.44170000      -0.41910000       2.37520000
H       -0.02550000       0.29390000       3.14640000
H        0.34040000      -2.57090000       3.72010000
H       -2.14130000      -2.86920000       2.56200000
H        0.28010000      -3.15420000       0.82930000
