20
Properties=species:S:1:pos:R:3 gdb_96407=T pbc="F F F"
C       -0.05400000       1.48900000      -0.01070000
N       -0.00850000       0.03220000       0.00740000
C       -1.35040000      -0.54400000      -0.08220000
C       -1.29050000      -2.07150000      -0.14800000
N       -0.55400000      -2.66010000       0.97040000
C        0.75710000      -2.05220000       1.10840000
C        0.70760000      -0.49800000       1.16970000
C        2.07880000       0.02310000       1.23200000
N        3.17210000       0.38970000       1.30950000
H        0.95960000       1.89720000      -0.00670000
H       -0.55270000       1.81990000      -0.92610000
H       -0.60290000       1.91290000       0.85120000
H       -1.97760000      -0.23860000       0.78180000
H       -1.82910000      -0.14390000      -0.98280000
H       -2.30270000      -2.48670000      -0.16750000
H       -0.78980000      -2.37080000      -1.07680000
H       -1.08290000      -2.54120000       1.83000000
H        1.24950000      -2.43200000       2.00750000
H        1.36850000      -2.33370000       0.24390000
H        0.20830000      -0.20730000       2.11850000
