14
Properties=species:S:1:pos:R:3 gdb_32062=T pbc="F F F"
O        0.57210000       0.60660000      -0.81730000
C       -0.09910000       0.24400000       0.36640000
C       -1.46010000      -0.35020000       0.11490000
C       -1.97320000      -0.69730000      -1.08530000
N       -3.23950000      -1.22910000      -1.20390000
C       -3.92720000      -1.39830000      -0.12490000
C       -3.45800000      -1.06600000       1.22400000
O       -4.04910000      -1.20790000       2.25640000
O       -2.16990000      -0.51880000       1.25100000
H        0.12870000       1.37510000      -1.19190000
H        0.52890000      -0.50260000       0.86770000
H       -0.20970000       1.08180000       1.07170000
H       -1.39270000      -0.57530000      -1.98870000
H       -4.92950000      -1.81450000      -0.18540000
