11
Properties=species:S:1:pos:R:3 gdb_132141=T pbc="F F F"
O        0.04260000       1.33650000       0.00790000
C       -0.03300000       0.01030000       0.00100000
C       -1.20280000      -0.69570000       0.00350000
F       -2.37030000      -0.05760000       0.01350000
N       -1.20840000      -2.02660000      -0.00360000
C       -0.08970000      -2.69350000      -0.01340000
C        1.21830000      -2.07100000      -0.01810000
O        2.31030000      -2.55490000      -0.02540000
O        1.12980000      -0.63230000      -0.00920000
H        0.97640000       1.59070000       0.00400000
H       -0.11450000      -3.77740000      -0.01860000
