11
Properties=species:S:1:pos:R:3 gdb_21403=T pbc="F F F"
N       -0.05950000       1.27570000       0.37570000
C       -0.01630000       0.09130000      -0.04950000
N       -1.15570000      -0.68920000      -0.14310000
C       -1.20010000      -1.98770000      -0.59470000
O       -2.21220000      -2.64550000      -0.66520000
C        0.14150000      -2.48330000      -0.98430000
N        1.23010000      -1.81920000      -0.92380000
O        1.16240000      -0.50870000      -0.45000000
H        0.86420000       1.70210000       0.37860000
H       -2.01880000      -0.25000000       0.15010000
H        0.22010000      -3.49910000      -1.35580000
