18
Properties=species:S:1:pos:R:3 gdb_120249=T pbc="F F F"
O        0.10380000       1.42630000       0.10230000
C        0.02540000       0.01960000      -0.06850000
C       -1.38270000      -0.52160000       0.20170000
C       -1.46260000      -2.03770000       0.05280000
C       -2.83200000      -2.74330000       0.09430000
N       -3.59380000      -2.22110000      -1.04370000
C       -2.63500000      -3.36630000      -1.25870000
C       -1.27830000      -2.70160000      -1.35230000
O       -0.36050000      -2.76750000      -2.11670000
H       -0.42820000       1.83400000      -0.58850000
H        0.36260000      -0.28870000      -1.06850000
H        0.73410000      -0.40430000       0.65230000
H       -1.68310000      -0.22900000       1.21530000
H       -2.09630000      -0.06040000      -0.49070000
H       -0.75470000      -2.53820000       0.72750000
H       -3.31590000      -3.18110000       0.95760000
H       -4.52320000      -2.64170000      -1.02390000
H       -2.98120000      -4.30460000      -1.67230000
