15
Properties=species:S:1:pos:R:3 gdb_20953=T pbc="F F F"
C       -0.04020000       1.48570000       0.01080000
C        0.00050000      -0.03010000       0.00230000
O       -1.35870000      -0.49530000       0.01070000
C       -1.52520000      -1.82430000       0.00490000
C       -2.72850000      -2.49930000       0.01080000
N       -2.34080000      -3.80050000       0.00010000
N       -1.01140000      -3.93370000      -0.00990000
N       -0.50800000      -2.72270000      -0.00790000
H        0.97820000       1.88500000       0.00480000
H       -0.56610000       1.86560000      -0.86970000
H       -0.55190000       1.85610000       0.90370000
H        0.51090000      -0.41810000      -0.88650000
H        0.52500000      -0.42770000       0.87870000
H       -3.75450000      -2.17890000       0.02050000
H       -2.91670000      -4.62700000      -0.00020000
