17
Properties=species:S:1:pos:R:3 gdb_40858=T pbc="F F F"
C        0.09230000       1.57750000      -0.06540000
O        1.45460000       1.59100000       0.40850000
C        1.51160000       0.15080000       0.46320000
C        0.06120000       0.03900000      -0.03910000
C       -1.03800000      -0.81060000       0.61940000
C       -1.88380000      -0.84410000      -0.69490000
O       -2.03250000      -2.29320000      -0.71160000
C       -0.67250000      -2.06170000      -0.24370000
C       -0.40450000      -0.85460000      -1.20020000
H       -0.59090000       2.08320000       0.63020000
H       -0.00390000       2.04250000      -1.05590000
H        2.28320000      -0.25650000      -0.20400000
H        1.69620000      -0.21570000       1.48200000
H       -1.41200000      -0.80330000       1.64330000
H       -2.72460000      -0.22370000      -1.00260000
H       -0.04380000      -2.91830000      -0.00420000
H       -0.06210000      -0.89700000      -2.23430000
