15
Properties=species:S:1:pos:R:3 gdb_10107=T pbc="F F F"
C        0.28050000       1.52550000       0.01990000
O       -0.06820000       0.14990000       0.07970000
C        0.57050000      -0.56610000       1.10900000
C       -0.08390000      -1.95400000       1.18220000
C       -1.54390000      -1.87940000       1.59680000
O       -2.07140000      -2.68740000       2.31480000
C        2.02690000      -0.68650000       0.86650000
N        3.16200000      -0.77090000       0.66780000
H        1.34870000       1.65990000      -0.19290000
H       -0.30600000       1.95980000      -0.79110000
H        0.03550000       2.03970000       0.96030000
H        0.44860000      -0.04420000       2.07350000
H       -0.03600000      -2.39610000       0.17880000
H        0.45210000      -2.61070000       1.87080000
H       -2.10540000      -1.02100000       1.17200000
