18
Properties=species:S:1:pos:R:3 gdb_72209=T pbc="F F F"
C        0.14320000       1.50070000       0.21160000
C       -0.07870000       0.03690000      -0.03080000
C        0.20240000      -0.62250000      -1.44760000
C       -1.17120000      -1.42490000      -1.40300000
C       -1.07900000      -2.92930000      -1.00020000
N       -0.28990000      -2.90430000       0.27570000
C       -0.47820000      -1.72390000       0.69210000
O        0.44860000      -0.79440000       1.11720000
C       -1.39440000      -0.75840000      -0.03620000
H        1.21300000       1.73380000       0.20720000
H       -0.33870000       2.09050000      -0.57410000
H       -0.27010000       1.79800000       1.17910000
H        0.19240000       0.14120000      -2.22860000
H        1.12130000      -1.20530000      -1.52620000
H       -1.85100000      -1.20750000      -2.22850000
H       -2.07380000      -3.38550000      -0.89630000
H       -0.51200000      -3.53000000      -1.71830000
H       -2.33680000      -0.43790000       0.40430000
