14
Properties=species:S:1:pos:R:3 gdb_24768=T pbc="F F F"
O        0.05530000      -0.05280000       0.00140000
C       -0.02430000       1.14740000       0.00940000
C       -1.21250000       2.05050000       0.03150000
C       -0.79550000       3.33520000       0.03270000
C        0.65820000       3.35990000       0.01180000
C        1.77010000       4.16680000      -0.00000000
C        2.91330000       3.29420000      -0.02130000
C        2.45990000       1.99800000      -0.02180000
N        1.08350000       2.04960000      -0.00160000
H       -2.22140000       1.66880000       0.04380000
H       -1.41840000       4.21910000       0.04660000
H        1.78560000       5.24610000       0.00560000
H        3.94810000       3.59970000      -0.03470000
H        2.98170000       1.05510000      -0.03440000
