20
Properties=species:S:1:pos:R:3 gdb_30825=T pbc="F F F"
C       -0.45530000       1.53000000       0.19760000
C        0.11000000       0.11330000      -0.01730000
C        0.86510000      -0.43040000       1.15020000
C        2.21490000      -0.62870000       1.33380000
O        3.15450000      -0.33460000       0.38010000
C        2.42660000      -1.15510000       2.63940000
C        1.18890000      -1.27030000       3.23940000
C        0.80630000      -1.76830000       4.59380000
N        0.26050000      -0.82610000       2.33500000
H        0.35010000       2.23920000       0.41010000
H       -0.99470000       1.87680000      -0.69020000
H       -1.15190000       1.55880000       1.04280000
H       -0.71280000      -0.56410000      -0.28870000
H        0.79250000       0.12080000      -0.87290000
H        4.00450000      -0.66390000       0.68340000
H        3.37320000      -1.41830000       3.08910000
H        0.28340000      -1.00550000       5.18490000
H        0.15050000      -2.64730000       4.54480000
H        1.70110000      -2.05760000       5.14980000
H       -0.73160000      -0.81030000       2.49600000
