16
Properties=species:S:1:pos:R:3 gdb_19915=T pbc="F F F"
C        0.16490000       1.03030000      -0.33710000
O       -0.12520000       0.03910000       0.62530000
C       -1.26960000      -0.68070000       0.33290000
C       -1.49870000      -1.68090000      -0.78260000
C       -0.33390000      -2.68410000      -1.02760000
O        0.78780000      -2.34460000      -0.20830000
C       -0.30270000      -3.06390000       0.37730000
C       -1.48670000      -2.10310000       0.71430000
H        1.05410000       1.56100000       0.00960000
H        0.37070000       0.58640000      -1.32080000
H       -0.66150000       1.75100000      -0.44430000
H       -2.18280000      -0.09010000       0.47540000
H       -2.35310000      -1.60900000      -1.44450000
H       -0.15400000      -3.24810000      -1.93490000
H       -0.08640000      -4.00400000       0.86940000
H       -2.32240000      -2.42230000       1.32510000
