15
Properties=species:S:1:pos:R:3 gdb_3277=T pbc="F F F"
O        0.10380000       0.07720000      -0.61450000
C        0.04860000       1.18810000      -0.17230000
C       -1.10210000       2.06520000       0.36550000
C       -0.07500000       3.20610000       0.60890000
C        0.60070000       3.18570000       2.00490000
C        1.72540000       2.25420000       1.46250000
C        1.08400000       2.29740000       0.03710000
H       -1.82810000       2.28540000      -0.42490000
H       -1.64740000       1.67760000       1.23160000
H       -0.32670000       4.17610000       0.18250000
H        0.97330000       4.16270000       2.32090000
H       -0.01320000       2.78070000       2.81450000
H        2.71780000       2.70800000       1.48770000
H        1.79710000       1.25980000       1.90970000
H        1.73490000       2.54430000      -0.80250000
