16
Properties=species:S:1:pos:R:3 gdb_27906=T pbc="F F F"
N        0.04910000       1.36010000       0.21930000
C       -0.00260000      -0.01450000       0.06800000
C       -1.22860000      -0.68700000       0.03440000
C       -1.19360000      -2.07380000      -0.06180000
O       -2.38110000      -2.73160000      -0.09490000
C        0.02760000      -2.74220000      -0.12120000
C        1.19170000      -1.96480000      -0.08330000
N        2.44210000      -2.55010000      -0.19750000
N        1.18530000      -0.63130000       0.01020000
H        0.93750000       1.75910000      -0.04460000
H       -0.75050000       1.87780000      -0.10950000
H       -2.17510000      -0.16530000       0.09390000
H       -2.21220000      -3.67710000      -0.16500000
H        0.07650000      -3.82260000      -0.21330000
H        2.52360000      -3.49930000       0.13180000
H        3.19060000      -1.94570000       0.10820000
