24
Properties=species:S:1:pos:R:3 gdb_118234=T pbc="F F F"
C       -0.21520000       1.59020000       0.05350000
C        0.07660000       0.08270000       0.03980000
C        0.75350000      -0.38490000      -1.25880000
C       -0.08580000      -0.19150000      -2.51620000
O        0.61900000      -0.78820000      -3.59690000
C        0.94100000      -0.31960000       1.24510000
N        0.27110000      -0.03680000       2.51060000
C       -0.54960000      -1.11080000       3.06100000
C        0.76030000      -0.76020000       3.67650000
H        0.69980000       2.16320000      -0.14120000
H       -0.95150000       1.87030000      -0.70550000
H       -0.59810000       1.89150000       1.03110000
H       -0.87940000      -0.45340000       0.13740000
H        1.70900000       0.13940000      -1.39280000
H        0.99340000      -1.45300000      -1.18730000
H       -1.07360000      -0.66280000      -2.37770000
H       -0.25890000       0.87850000      -2.70420000
H        0.12420000      -0.62330000      -4.40470000
H        1.21330000      -1.38830000       1.16120000
H        1.87950000       0.25060000       1.23050000
H       -1.48120000      -0.80730000       3.53010000
H       -0.60170000      -2.04770000       2.50730000
H        1.57860000      -1.46450000       3.53270000
H        0.80430000      -0.19490000       4.60320000
