17
Properties=species:S:1:pos:R:3 gdb_67393=T pbc="F F F"
C       -0.07230000       1.54400000      -0.02250000
C       -0.00530000       0.04870000       0.00380000
C       -0.08230000      -1.02500000      -1.01100000
O        1.05960000      -1.73820000      -0.56360000
C        1.09150000      -0.87640000       0.62450000
C        0.44880000      -1.64740000       1.76500000
C       -1.00540000      -1.81930000       1.28080000
O       -1.85230000      -2.49790000       1.80360000
C       -1.17240000      -0.93740000       0.08310000
H        0.85630000       1.97550000      -0.41150000
H       -0.89310000       1.88490000      -0.66090000
H       -0.24170000       1.95360000       0.97980000
H       -0.32850000      -1.04620000      -2.06620000
H        2.08540000      -0.46200000       0.79590000
H        0.91980000      -2.61380000       1.95840000
H        0.45120000      -1.06670000       2.69610000
H       -2.16520000      -0.65080000      -0.24180000
