15
Properties=species:S:1:pos:R:3 gdb_85473=T pbc="F F F"
C        0.06210000       1.57390000      -0.17560000
C       -0.04350000       0.06360000       0.03980000
N        0.56290000      -0.72180000      -1.02440000
C        1.85580000      -1.09210000      -0.72380000
O        2.70380000      -1.51860000      -1.44890000
O        2.04320000      -0.90960000       0.63180000
C        0.80740000      -0.50090000       1.22170000
C        1.05600000       0.45120000       2.30480000
N        1.21090000       1.19650000       3.17280000
H        1.10640000       1.88810000      -0.26420000
H       -0.46180000       1.85560000      -1.09410000
H       -0.39380000       2.11870000       0.65530000
H       -1.08950000      -0.22230000       0.18460000
H        0.35750000      -0.53340000      -1.99320000
H        0.31300000      -1.38390000       1.64520000
