15
Properties=species:S:1:pos:R:3 gdb_124330=T pbc="F F F"
C       -0.09980000       1.49830000       0.00900000
C        0.03610000      -0.00040000      -0.00820000
O        1.07590000      -0.61210000      -0.04170000
N       -1.18630000      -0.70960000       0.01940000
C       -1.34980000      -2.06210000       0.01770000
N       -2.61840000      -2.37680000       0.04990000
C       -3.23600000      -1.14200000       0.07210000
N       -4.59860000      -1.04000000       0.16570000
N       -2.42360000      -0.10160000       0.04910000
H        0.89790000       1.93510000      -0.01640000
H       -0.68970000       1.83660000      -0.84700000
H       -0.63780000       1.82040000       0.90450000
H       -0.50950000      -2.73710000      -0.00780000
H       -5.09800000      -1.84860000      -0.17030000
H       -4.98630000      -0.15610000      -0.12570000
