15
Properties=species:S:1:pos:R:3 gdb_15754=T pbc="F F F"
O        0.44150000      -0.11330000       0.33580000
C        0.24840000       0.92310000      -0.24040000
C        0.98150000       2.21800000       0.09020000
C        1.34820000       2.98970000      -1.17020000
O        0.53530000       3.15950000      -2.05790000
C        2.74070000       3.51490000      -1.28450000
C        3.46490000       3.18120000      -2.55980000
N        2.99410000       4.53310000      -2.31170000
H       -0.48730000       1.01900000      -1.06420000
H        0.27490000       2.84700000       0.65120000
H        1.83590000       2.00510000       0.73570000
H        3.31020000       3.61500000      -0.36580000
H        4.54110000       3.04130000      -2.52060000
H        2.93220000       2.56430000      -3.27810000
H        2.11430000       4.66960000      -2.81180000
