18
Properties=species:S:1:pos:R:3 gdb_117736=T pbc="F F F"
C       -0.11480000       1.55780000       0.05440000
C        0.04250000       0.04860000       0.09680000
O       -1.26770000      -0.52250000       0.04480000
C       -1.35260000      -1.92740000      -0.04680000
C       -0.80770000      -2.68800000       1.16720000
C       -2.87980000      -2.17520000      -0.20870000
O       -3.45130000      -3.13230000       0.22510000
C       -0.71530000      -2.41340000      -1.29650000
N       -0.23120000      -2.77920000      -2.28060000
H        0.86740000       2.03690000       0.09920000
H       -0.61140000       1.86720000      -0.86910000
H       -0.71060000       1.90810000       0.90180000
H        0.63540000      -0.30820000      -0.75680000
H        0.55370000      -0.26270000       1.01750000
H       -1.21730000      -2.23930000       2.07560000
H       -1.13290000      -3.72870000       1.11450000
H        0.28240000      -2.65670000       1.20530000
H       -3.38070000      -1.35470000      -0.75990000
