21
Properties=species:S:1:pos:R:3 gdb_82639=T pbc="F F F"
C       -0.00240000       1.62430000      -0.03440000
C        0.08840000       0.10290000      -0.01280000
C        1.11220000      -0.65720000      -0.91430000
C        2.50710000      -0.11430000      -0.50210000
C        2.25530000      -0.75600000       0.85930000
C        0.72430000      -0.63900000       1.16940000
C        0.20290000      -0.76030000       2.57050000
C        1.24460000      -1.71930000       0.27590000
O        1.05330000      -3.07320000       0.37480000
H        0.95190000       2.10000000       0.20860000
H       -0.31990000       1.98610000      -1.01920000
H       -0.73750000       1.97710000       0.69760000
H       -0.90610000      -0.32660000      -0.18750000
H        0.87950000      -0.86840000      -1.95680000
H        3.31050000      -0.62730000      -1.04010000
H        2.67070000       0.96640000      -0.56270000
H        2.95140000      -0.92520000       1.67180000
H        0.28060000       0.18790000       3.11490000
H       -0.85070000      -1.06250000       2.57360000
H        0.76140000      -1.51440000       3.13480000
H        1.81430000      -3.52240000      -0.01040000
