18
Properties=species:S:1:pos:R:3 gdb_28869=T pbc="F F F"
C       -0.11360000       1.50430000       0.06460000
C       -0.03890000      -0.00390000       0.00060000
C        0.06090000      -0.68480000      -1.22440000
C        0.10190000       0.01520000      -2.56190000
C        0.12430000      -2.08430000      -1.17770000
O        0.22210000      -2.84750000      -2.29580000
C        0.08740000      -2.74080000       0.05000000
C       -0.01230000      -1.96360000       1.19130000
N       -0.07490000      -0.62960000       1.18530000
H        0.77270000       1.97700000      -0.37360000
H       -0.98700000       1.89390000      -0.47080000
H       -0.18550000       1.80500000       1.11010000
H        1.03010000      -0.20180000      -3.10860000
H       -0.73600000      -0.28520000      -3.20640000
H        0.04490000       1.09800000      -2.45520000
H        0.23840000      -2.28010000      -3.07340000
H        0.13620000      -3.82220000       0.09050000
H       -0.04400000      -2.43830000       2.16940000
