16
Properties=species:S:1:pos:R:3 gdb_14157=T pbc="F F F"
O       -0.02350000       1.24740000      -0.32590000
C       -0.06760000      -0.12630000      -0.07960000
C       -0.47060000      -0.63300000       1.29800000
C       -1.42490000      -0.72530000       0.15120000
C       -2.70980000       0.09010000      -0.00480000
O       -3.54870000      -0.75390000      -0.79480000
C       -2.71590000      -1.75330000      -1.33140000
O       -1.71240000      -1.99870000      -0.37000000
H        0.72080000       1.61860000       0.15950000
H        0.64370000      -0.73410000      -0.63800000
H       -0.01870000      -1.55320000       1.65190000
H       -0.68360000       0.10820000       2.06220000
H       -3.21540000       0.27790000       0.94760000
H       -2.51510000       1.04590000      -0.50430000
H       -3.29530000      -2.66730000      -1.48510000
H       -2.26270000      -1.41800000      -2.28220000
