19
Properties=species:S:1:pos:R:3 gdb_31079=T pbc="F F F"
C        0.07240000       1.37210000       0.02960000
O        0.03420000      -0.03830000       0.02770000
C       -1.21190000      -0.59610000       0.02060000
C       -1.40200000      -1.96300000       0.01730000
N       -0.52030000      -3.06640000       0.01920000
N       -2.76990000      -2.16610000       0.00950000
C       -3.44070000      -0.97530000       0.00860000
C       -4.93180000      -0.89560000       0.00380000
C       -2.49070000       0.03100000       0.01470000
H        1.12640000       1.65800000       0.03530000
H       -0.40920000       1.79250000      -0.86440000
H       -0.41820000       1.79040000       0.91970000
H        0.09270000      -3.04890000      -0.79070000
H        0.08450000      -3.05260000       0.83540000
H       -3.18050000      -3.08420000       0.00560000
H       -5.37760000      -1.36070000       0.89260000
H       -5.24680000       0.15050000      -0.01180000
H       -5.37220000      -1.38550000      -0.87410000
H       -2.70550000       1.08780000       0.01520000
