21
Properties=species:S:1:pos:R:3 gdb_99292=T pbc="F F F"
C       -0.52340000       1.13910000      -0.40110000
C        0.28320000      -0.12320000      -0.10800000
C        0.95710000      -0.69320000      -1.34060000
O        0.87280000      -0.23320000      -2.45310000
O        1.67590000      -1.78890000      -1.01910000
C        2.37510000      -2.45990000      -2.09320000
C        1.57800000      -3.61320000      -2.63770000
C        0.52880000      -3.37390000      -3.69530000
C        1.82060000      -4.05720000      -4.06070000
H        0.11600000       1.92720000      -0.80690000
H       -1.30480000       0.94140000      -1.13910000
H       -0.99530000       1.51230000       0.51210000
H        1.06150000       0.06010000       0.64200000
H       -0.34730000      -0.91340000       0.31680000
H        2.59580000      -1.73320000      -2.87870000
H        3.31080000      -2.80300000      -1.64260000
H        1.37300000      -4.39690000      -1.91390000
H       -0.37460000      -3.97250000      -3.65810000
H        0.38160000      -2.35140000      -4.02230000
H        2.54030000      -3.49950000      -4.65110000
H        1.80620000      -5.12060000      -4.27080000
