18
Properties=species:S:1:pos:R:3 gdb_23422=T pbc="F F F"
O       -0.31980000       1.35350000      -0.19680000
N       -0.05150000      -0.02460000      -0.08160000
C       -1.13270000      -0.69080000      -0.03320000
C       -2.55100000      -0.15840000      -0.06360000
O       -3.38490000      -1.23890000       0.33230000
C       -2.70260000      -2.45730000       0.10580000
C       -2.62200000      -2.98170000      -1.36080000
C       -1.07010000      -2.97660000      -1.26030000
C       -1.16880000      -2.19080000       0.08500000
H        0.56390000       1.73610000      -0.18550000
H       -2.68980000       0.67690000       0.62940000
H       -2.80250000       0.20620000      -1.07220000
H       -3.07380000      -3.18650000       0.82840000
H       -3.09820000      -3.94480000      -1.55610000
H       -3.01720000      -2.25210000      -2.07210000
H       -0.65170000      -3.97450000      -1.11100000
H       -0.51760000      -2.48430000      -2.06260000
H       -0.55290000      -2.55110000       0.91030000
