15
Properties=species:S:1:pos:R:3 gdb_20650=T pbc="F F F"
C        0.07020000       1.49710000       0.02070000
C       -0.08920000       0.01810000       0.02860000
C       -1.16620000      -0.81050000       0.06870000
C       -0.59410000      -2.11320000       0.04090000
C       -1.30320000      -3.43020000       0.09910000
O       -2.46760000      -3.33720000      -0.70880000
N        0.71480000      -2.06890000      -0.01650000
O        1.04130000      -0.71390000      -0.01670000
H        0.58260000       1.83110000      -0.88750000
H       -0.90710000       1.98100000       0.06620000
H        0.66580000       1.83210000       0.87620000
H       -2.20990000      -0.54910000       0.09710000
H       -0.61680000      -4.21740000      -0.24130000
H       -1.56730000      -3.64990000       1.14620000
H       -2.96290000      -4.15540000      -0.60800000
