19
Properties=species:S:1:pos:R:3 gdb_111220=T pbc="F F F"
C        0.27910000       1.33970000       0.10660000
O       -0.21710000       0.05660000      -0.20990000
C        0.45260000      -0.54630000      -1.26330000
C        1.72550000      -1.40970000      -0.97640000
O        0.87260000      -2.39970000      -0.29050000
C        0.10640000      -2.03160000      -1.50220000
C        1.42240000      -2.20370000      -2.29270000
O        1.51310000      -1.62070000      -3.55270000
C        2.81000000      -1.69850000      -4.11200000
H        1.31700000       1.30060000       0.46900000
H        0.24080000       2.01530000      -0.76210000
H       -0.35480000       1.74420000       0.89850000
H        0.50130000       0.09390000      -2.15290000
H        2.67390000      -1.15190000      -0.50490000
H       -0.86470000      -2.50170000      -1.65340000
H        1.81250000      -3.22760000      -2.25830000
H        2.75530000      -1.27020000      -5.11500000
H        3.54510000      -1.13270000      -3.52160000
H        3.15290000      -2.74110000      -4.18610000
