17
Properties=species:S:1:pos:R:3 gdb_61339=T pbc="F F F"
C       -0.16860000       1.65800000       0.06600000
C       -0.03640000       0.12170000       0.03150000
C        0.80680000      -0.41150000       1.20880000
C        2.28970000      -0.10230000       1.08510000
O        2.79110000       0.40170000       0.10300000
C        3.09210000      -0.48040000       2.23750000
C        3.73590000      -0.79880000       3.20340000
C       -1.34930000      -0.52080000       0.02640000
C       -2.43270000      -1.04170000       0.04520000
H        0.81940000       2.12050000       0.01890000
H       -0.75790000       2.00960000      -0.78430000
H       -0.67250000       1.98100000       0.98230000
H        0.49070000      -0.14900000      -0.89160000
H        0.44090000      -0.01930000       2.16580000
H        0.71280000      -1.50230000       1.28850000
H        4.32090000      -1.07360000       4.04760000
H       -3.38890000      -1.50340000       0.04410000
