12
Properties=species:S:1:pos:R:3 gdb_133305=T pbc="F F F"
N        0.00030000       1.38660000      -0.13150000
C        0.01830000       0.02540000      -0.04800000
C       -1.13040000      -0.72130000      -0.02870000
F       -2.30180000      -0.06270000      -0.03770000
C       -1.13800000      -2.13850000      -0.00390000
N       -2.14830000      -2.91440000       0.02790000
N        0.21650000      -2.68220000      -0.02020000
N        1.26760000      -2.12900000      -0.02530000
O        1.22600000      -0.51410000      -0.02300000
H        0.84170000       1.86210000       0.15320000
H       -0.87280000       1.83960000       0.08640000
H       -1.85140000      -3.88900000       0.03520000
