17
Properties=species:S:1:pos:R:3 gdb_65180=T pbc="F F F"
O        0.15400000       1.35920000       0.11190000
C        0.09340000      -0.02910000       0.02880000
C        1.17510000      -0.67590000      -0.77630000
C        1.16480000      -0.83820000       0.73120000
C       -1.29990000      -0.57920000      -0.01000000
N       -2.29940000       0.20610000       0.71570000
C       -2.43110000       0.07200000      -0.75050000
C       -2.30460000       1.26630000      -1.55170000
N       -2.27190000       2.19110000      -2.24420000
H       -0.49050000       1.62500000       0.78240000
H        0.92520000      -1.53120000      -1.39500000
H        1.91050000      -0.00490000      -1.20440000
H        1.89240000      -0.26940000       1.29800000
H        0.91270000      -1.80790000       1.14830000
H       -1.36220000      -1.66440000       0.04570000
H       -2.98460000      -0.37500000       1.18950000
H       -3.19770000      -0.60190000      -1.12550000
