20
Properties=species:S:1:pos:R:3 gdb_65137=T pbc="F F F"
C       -0.05040000       1.50280000       0.00630000
C        0.08120000      -0.00480000      -0.04000000
C        1.19570000      -0.61910000      -0.78190000
O        1.22660000      -0.53560000       0.64380000
C       -1.22190000      -0.75270000       0.05700000
C       -1.50080000      -2.05190000       0.69980000
C       -0.72270000      -2.30250000       1.99040000
C       -1.24210000      -0.92430000       2.46210000
N       -2.11530000      -0.75380000       1.23550000
H        0.93060000       1.97630000      -0.07820000
H       -0.68550000       1.85960000      -0.81150000
H       -0.51260000       1.82150000       0.94560000
H        1.08520000      -1.62400000      -1.18680000
H        1.91040000       0.01780000      -1.30150000
H       -1.82460000      -0.57670000      -0.83510000
H       -2.11400000      -2.79580000       0.19800000
H       -1.15600000      -3.12260000       2.56650000
H        0.35360000      -2.44250000       1.90250000
H       -1.87750000      -0.96450000       3.34840000
H       -0.49610000      -0.13670000       2.59490000
