16
Properties=species:S:1:pos:R:3 gdb_73071=T pbc="F F F"
O       -0.08140000       1.45970000      -0.36110000
C        0.01090000       0.12480000      -0.03220000
C        0.68550000      -0.94130000      -0.90670000
N       -0.34010000      -1.96170000      -0.48800000
C       -1.07530000      -0.92210000       0.24950000
C       -0.18740000      -0.40360000       1.35350000
O        0.81490000      -1.16890000       1.98080000
C        0.47340000      -2.41210000       2.40650000
O        1.25710000      -3.12950000       2.94870000
H        0.58840000       1.94770000       0.13210000
H        0.61070000      -0.67810000      -1.96470000
H        1.71330000      -1.21970000      -0.65750000
H       -0.87470000      -2.27530000      -1.29100000
H       -2.15730000      -0.88260000       0.29370000
H       -0.67670000       0.30170000       2.02170000
H       -0.58280000      -2.65550000       2.20680000
