21
Properties=species:S:1:pos:R:3 gdb_77007=T pbc="F F F"
C       -0.38970000       1.09270000      -1.76900000
C       -0.11270000      -0.11720000      -0.90160000
C        1.28370000      -0.50760000      -0.43310000
C        2.53220000       0.29310000      -0.78030000
C        3.07480000      -0.05800000      -2.09050000
C        3.50890000      -0.36370000      -3.16890000
C        0.26000000      -0.04550000       0.56770000
C        0.37190000       1.26420000       1.31670000
O       -0.20700000      -1.09940000       1.38060000
H        0.23410000       1.95230000      -1.51080000
H       -0.20320000       0.86270000      -2.82330000
H       -1.43430000       1.41050000      -1.67650000
H       -0.73810000      -0.97510000      -1.13620000
H        1.46140000      -1.57810000      -0.40250000
H        2.32940000       1.36930000      -0.75580000
H        3.29870000       0.11770000      -0.01370000
H        3.89750000      -0.62740000      -4.12090000
H        0.77740000       2.07310000       0.70530000
H       -0.61570000       1.58750000       1.66880000
H        1.01460000       1.14070000       2.19420000
H       -1.12690000      -0.91300000       1.60120000
