14
Properties=species:S:1:pos:R:3 gdb_49336=T pbc="F F F"
N        0.04020000       1.33930000       0.12540000
C        0.06340000       0.08170000       0.00640000
N        1.12940000      -0.79870000      -0.16040000
C        0.73440000      -2.18490000      -0.01580000
C       -0.78690000      -2.09910000      -0.01040000
O       -1.57040000      -3.01100000      -0.01380000
N       -1.10630000      -0.73200000       0.00290000
C       -2.45550000      -0.31120000      -0.01010000
O       -2.82980000       0.82410000      -0.02980000
H        0.98290000       1.72560000       0.09490000
H        2.03160000      -0.49440000       0.16710000
H        1.06690000      -2.81800000      -0.84530000
H        1.06990000      -2.64840000       0.92170000
H       -3.11150000      -1.19600000      -0.00270000
