20
Properties=species:S:1:pos:R:3 gdb_97957=T pbc="F F F"
C       -0.68070000       1.09830000      -0.46090000
C        0.39550000       0.13900000       0.07950000
C        1.24670000      -0.41690000      -0.96760000
C        1.93280000      -0.85180000      -1.85710000
C        2.78200000      -1.40040000      -2.90990000
N        2.47920000      -2.79800000      -3.19650000
C        2.29050000      -3.24660000      -4.47310000
C        1.88050000      -4.70660000      -4.58960000
O        2.43600000      -2.53300000      -5.44950000
H       -0.22140000       1.94340000      -0.98050000
H       -1.33810000       0.58550000      -1.16800000
H       -1.29100000       1.48750000       0.35950000
H        1.01970000       0.66300000       0.81470000
H       -0.08590000      -0.68150000       0.62710000
H        2.64650000      -0.86560000      -3.85560000
H        3.83940000      -1.28730000      -2.63150000
H        2.28960000      -3.40650000      -2.41800000
H        1.92490000      -5.25340000      -3.64410000
H        0.85860000      -4.75400000      -4.97730000
H        2.53010000      -5.19570000      -5.31880000
