16
Properties=species:S:1:pos:R:3 gdb_6330=T pbc="F F F"
C       -0.06740000       1.40310000       0.29020000
N       -0.31640000       0.48460000      -0.82320000
H        0.53140000       0.27030000      -1.32980000
C       -1.05600000      -0.67990000      -0.59400000
N       -2.25850000      -0.43390000       0.08680000
C       -0.65540000      -1.90430000      -0.98020000
C       -0.84300000      -2.11000000       2.41750000
O        0.09100000      -1.45680000       2.64720000
O       -1.77650000      -2.77570000       2.21960000
H        0.50300000       2.25710000      -0.08450000
H       -1.01160000       1.77820000       0.68880000
H        0.48720000       0.93960000       1.11890000
H       -2.77240000       0.35330000      -0.29140000
H       -2.84500000      -1.25410000       0.15200000
H       -1.32700000      -2.75210000      -0.94400000
H        0.34390000      -2.07050000      -1.36120000
