13
Properties=species:S:1:pos:R:3 gdb_132713=T pbc="F F F"
F        0.00180000       0.02170000       0.00370000
C       -0.01630000       1.35290000       0.01070000
C       -1.24050000       2.01010000       0.03020000
C       -1.25680000       3.39760000       0.03750000
C       -0.05380000       4.11800000       0.02530000
C        1.16830000       3.43070000       0.00570000
C        1.18970000       2.04330000      -0.00160000
C       -0.07320000       5.54720000       0.03280000
N       -0.08900000       6.70490000       0.03890000
H       -2.15750000       1.43390000       0.03930000
H       -2.19970000       3.93070000       0.05260000
H        2.09630000       3.98940000      -0.00370000
H        2.12190000       1.49230000      -0.01670000
