18
Properties=species:S:1:pos:R:3 gdb_34630=T pbc="F F F"
N        0.11280000      -1.12350000      -0.01340000
C        0.02860000       0.03150000       0.02420000
C       -0.01490000       1.45220000       0.06710000
C       -1.12850000       2.19670000       0.12860000
C       -0.81570000       3.66950000       0.10850000
C        0.72360000       3.72210000       0.30450000
C        1.22050000       2.29800000       0.01330000
C        2.56470000       1.79850000       0.47810000
C        2.31470000       2.00020000      -0.99300000
H       -2.13540000       1.79820000       0.15040000
H       -1.12780000       4.10580000      -0.85060000
H       -1.35770000       4.22170000       0.88370000
H        1.20170000       4.46790000      -0.33520000
H        0.95370000       3.98670000       1.34200000
H        3.20380000       2.50770000       0.99430000
H        2.63220000       0.78040000       0.84670000
H        2.21000000       1.11830000      -1.61590000
H        2.77940000       2.84800000      -1.48550000
