15
Properties=species:S:1:pos:R:3 gdb_20118=T pbc="F F F"
O       -0.09840000       0.27950000       0.71510000
C       -0.10590000       1.36250000       0.17820000
C        1.07720000       2.29800000       0.19570000
C        1.92280000       2.34080000       1.40560000
O        2.35600000       1.67140000       0.23460000
N       -1.17970000       1.84450000      -0.56840000
C       -1.97590000       3.00770000      -0.20110000
C       -2.54980000       1.62130000      -0.17700000
H        1.01150000       3.17600000      -0.44380000
H        2.44820000       3.26290000       1.65040000
H        1.66110000       1.69120000       2.23820000
H       -1.77150000       3.48120000       0.75620000
H       -2.22470000       3.68930000      -1.00950000
H       -3.22280000       1.30780000      -0.96920000
H       -2.71280000       1.14900000       0.78790000
