17
Properties=species:S:1:pos:R:3 gdb_70813=T pbc="F F F"
O       -0.03420000       1.34460000       0.05450000
C        0.03550000      -0.02780000       0.02760000
C        0.73280000      -0.96460000       1.04380000
C        0.04080000      -1.88780000       0.01180000
O        0.08320000      -3.26000000      -0.05550000
C       -1.24020000      -0.93580000      -0.01000000
C       -1.75340000      -0.93210000      -1.43080000
C       -0.64700000      -0.95960000      -2.18140000
C        0.48320000      -0.97180000      -1.17920000
H        0.85640000       1.69660000       0.15760000
H        1.82730000      -0.96970000       1.04460000
H        0.32880000      -0.96610000       2.06100000
H       -0.15380000      -3.61840000       0.80660000
H       -1.92310000      -0.92490000       0.84080000
H       -2.79010000      -0.92040000      -1.73510000
H       -0.54640000      -0.96220000      -3.25720000
H        1.52620000      -0.98630000      -1.49920000
