17
Properties=species:S:1:pos:R:3 gdb_124723=T pbc="F F F"
C       -0.47560000       2.15100000       0.47130000
C       -0.60270000       0.67620000       0.29350000
N        1.80580000      -1.66470000       0.53020000
H        2.15950000      -2.07540000       1.38990000
H        0.94240000      -2.15910000       0.30570000
H        2.47560000      -1.90990000      -0.19390000
C       -1.73830000       0.02950000      -0.00060000
C       -1.96850000      -1.41660000      -0.19660000
O       -1.19140000      -2.35200000      -0.13870000
C       -3.41660000      -1.43480000      -0.48730000
N       -3.93570000      -0.25660000      -0.46870000
O       -2.94470000       0.67930000      -0.17390000
H       -0.08260000       2.37630000       1.47060000
H        0.25670000       2.55290000      -0.24000000
H       -1.42420000       2.67240000       0.33690000
H        0.29150000       0.06050000       0.40750000
H       -4.03160000      -2.29800000      -0.69950000
