17
Properties=species:S:1:pos:R:3 gdb_29940=T pbc="F F F"
C       -0.02940000       1.45620000       0.00410000
N       -0.04500000      -0.00190000      -0.00420000
C       -1.18280000      -0.70830000      -0.17750000
C       -1.16480000      -2.06880000      -0.18030000
C        0.10030000      -2.69900000       0.00680000
C        0.18320000      -4.20240000       0.01320000
N        1.21440000      -2.03140000       0.17640000
C        1.21570000      -0.65190000       0.18210000
O        2.20280000       0.03910000       0.33270000
H        0.62670000       1.82590000      -0.78700000
H       -1.04480000       1.82680000      -0.14670000
H        0.36520000       1.81880000       0.95590000
H       -2.09070000      -0.12950000      -0.31120000
H       -2.07330000      -2.63820000      -0.31870000
H       -0.18440000      -4.61230000      -0.93450000
H        1.21510000      -4.51750000       0.16710000
H       -0.44660000      -4.61940000       0.80730000
