14
Properties=species:S:1:pos:R:3 gdb_45978=T pbc="F F F"
O       -0.00700000      -0.01140000       0.26460000
C       -0.00820000       1.17240000       0.03150000
C       -1.30260000       1.93940000      -0.22060000
O       -1.15390000       3.09580000      -1.05050000
C       -0.13480000       3.96320000      -0.79180000
O       -0.28130000       5.14270000      -0.91040000
N        1.12000000       3.38310000      -0.48910000
C        1.47070000       3.12220000       0.89610000
C        1.23410000       1.98920000      -0.06870000
H       -2.00580000       1.27670000      -0.72710000
H       -1.74860000       2.22880000       0.74200000
H        2.49150000       3.35640000       1.18090000
H        0.72230000       3.31360000       1.66120000
H        2.10050000       1.45670000      -0.45070000
