23
Properties=species:S:1:pos:R:3 gdb_118836=T pbc="F F F"
C        0.02270000       1.43600000      -0.44570000
C       -0.02940000       0.06300000       0.23340000
C       -1.41850000      -0.54250000       0.21700000
C       -1.92690000      -1.28780000      -1.00740000
C       -1.61890000      -2.02690000       0.27590000
O       -0.45680000      -2.80810000       0.32650000
C       -2.74010000      -2.60900000       1.09580000
O       -2.99300000      -3.91040000       0.59160000
C       -3.91790000      -4.63780000       1.36470000
H        1.03480000       1.85180000      -0.41960000
H       -0.28770000       1.36840000      -1.49380000
H       -0.64380000       2.15080000       0.05010000
H        0.66700000      -0.62650000      -0.25310000
H        0.31180000       0.15390000       1.27270000
H       -2.16620000       0.04650000       0.74590000
H       -2.95970000      -1.16320000      -1.31500000
H       -1.22160000      -1.43440000      -1.81880000
H       -0.73720000      -3.70340000       0.09930000
H       -2.44010000      -2.66950000       2.15530000
H       -3.64360000      -1.98180000       1.03210000
H       -4.02730000      -5.62310000       0.90490000
H       -3.57250000      -4.76440000       2.40280000
H       -4.90320000      -4.14660000       1.38890000
