16
Properties=species:S:1:pos:R:3 gdb_27237=T pbc="F F F"
N        0.13040000       1.44140000       0.03930000
C       -0.00370000       0.04540000       0.03640000
C       -1.03940000      -0.81950000       0.01640000
C       -2.45480000      -1.26630000      -0.30320000
C       -1.80620000      -2.67370000      -0.60720000
N       -0.53010000      -2.11710000      -0.12300000
C        0.84430000      -2.12130000      -0.29490000
O        1.61660000      -3.02420000      -0.53930000
N        1.14530000      -0.76480000      -0.05900000
H        0.53430000       1.79140000       0.90420000
H       -0.76680000       1.89270000      -0.09000000
H       -3.15510000      -1.27180000       0.53630000
H       -2.93170000      -0.78570000      -1.16040000
H       -2.17640000      -3.51730000      -0.02050000
H       -1.79030000      -2.93950000      -1.66790000
H        2.07760000      -0.40820000      -0.18180000
