20
Properties=species:S:1:pos:R:3 gdb_68980=T pbc="F F F"
C       -0.16750000       1.49180000       0.19940000
C        0.12680000       0.03290000       0.03600000
C        0.57020000      -0.68390000      -1.24930000
C        1.36230000      -1.70950000      -0.36570000
C        0.88070000      -0.94820000       0.87540000
C        1.61720000      -0.78280000       2.18100000
C        1.60990000      -1.99040000       3.00520000
C        1.60030000      -2.99220000       3.66850000
N       -0.60310000      -1.00490000       0.81730000
H        0.61080000       2.10710000      -0.26530000
H       -1.12300000       1.75440000      -0.27050000
H       -0.23160000       1.77170000       1.25700000
H       -0.24200000      -1.08830000      -1.85820000
H        1.22820000      -0.07370000      -1.87330000
H        1.04630000      -2.75330000      -0.42100000
H        2.44290000      -1.64420000      -0.51600000
H        2.65650000      -0.49220000       1.97560000
H        1.17570000       0.04910000       2.74690000
H        1.58910000      -3.87620000       4.25640000
H       -0.94970000      -0.54910000       1.66320000
