14
Properties=species:S:1:pos:R:3 gdb_12154=T pbc="F F F"
C       -0.17730000       1.44460000      -0.02660000
C        0.03430000      -0.05910000       0.06910000
C        0.91440000      -0.75210000      -1.01560000
O        1.83840000      -1.20900000       0.01600000
C        1.11740000      -0.55580000       1.00870000
N        1.34420000      -0.43010000       2.23010000
C        0.31870000      -1.85390000      -1.76220000
N       -0.17550000      -2.70860000      -2.36200000
H        0.76580000       1.96830000      -0.20960000
H       -0.87510000       1.69130000      -0.83210000
H       -0.59140000       1.81790000       0.91360000
H       -0.91150000      -0.58370000       0.22580000
H        1.41620000      -0.06290000      -1.70110000
H        2.20190000      -0.90350000       2.51720000
