21
Properties=species:S:1:pos:R:3 gdb_47399=T pbc="F F F"
O       -0.37480000       0.08210000      -0.37740000
C       -0.22010000       1.25250000      -0.12910000
C       -1.32600000       2.25470000       0.21870000
C       -0.57550000       3.50900000       0.69360000
C        0.75580000       3.45930000      -0.08850000
C        1.12720000       1.97160000      -0.10250000
C        2.06500000       1.51100000       1.07620000
C        3.24830000       1.45350000       0.07650000
C        2.22370000       1.48600000      -1.08680000
H       -1.88560000       2.45350000      -0.70530000
H       -2.03510000       1.83060000       0.93370000
H       -1.13060000       4.43470000       0.52420000
H       -0.37680000       3.44160000       1.76950000
H        0.59490000       3.80810000      -1.11730000
H        1.53100000       4.09390000       0.35080000
H        2.14480000       2.19440000       1.92590000
H        1.78460000       0.51900000       1.43910000
H        3.86260000       2.35720000       0.11300000
H        3.90790000       0.58530000       0.13960000
H        1.98080000       0.48520000      -1.45450000
H        2.43930000       2.14030000      -1.93570000
