20
Properties=species:S:1:pos:R:3 gdb_57208=T pbc="F F F"
C       -1.31450000       1.20560000      -1.28940000
C       -0.33620000       0.41360000      -0.41110000
C       -1.11490000      -0.62430000       0.41180000
N       -0.94220000      -0.55540000       1.76400000
O       -1.82620000      -1.46010000      -0.11180000
C        0.76210000      -0.31290000      -1.20110000
C        1.91550000      -0.82600000      -0.36590000
C        0.45780000      -0.95400000      -2.48510000
O        1.15370000       0.30020000      -2.43570000
H       -0.76520000       1.81320000      -2.01030000
H       -1.98170000       0.52640000      -1.82460000
H       -1.93460000       1.86100000      -0.67100000
H        0.17140000       1.11200000       0.26790000
H       -0.41550000       0.17930000       2.20160000
H       -1.47040000      -1.18670000       2.34470000
H        2.41330000       0.00210000       0.15180000
H        1.56830000      -1.53660000       0.39110000
H        2.65490000      -1.32300000      -0.99780000
H        1.05650000      -1.80380000      -2.81000000
H       -0.54920000      -0.91670000      -2.89060000
