17
Properties=species:S:1:pos:R:3 gdb_117115=T pbc="F F F"
C       -0.17930000       1.48280000       0.04430000
C       -0.02470000      -0.02280000      -0.01930000
O       -1.35560000      -0.59670000      -0.06810000
C       -1.42000000      -1.92650000      -0.07520000
O       -0.48350000      -2.68020000      -0.08190000
C       -2.88670000      -2.39900000      -0.04950000
N       -2.94780000      -3.75750000      -0.56150000
C       -3.39740000      -2.23490000       1.33030000
N       -3.82110000      -2.15670000       2.40320000
H        0.80840000       1.95130000       0.08130000
H       -0.70680000       1.85990000      -0.83610000
H       -0.73650000       1.78060000       0.93650000
H        0.52280000      -0.34700000      -0.90920000
H        0.49270000      -0.42510000       0.85630000
H       -3.46510000      -1.72380000      -0.69030000
H       -2.17400000      -4.28740000      -0.17040000
H       -3.81580000      -4.20530000      -0.28950000
