17
Properties=species:S:1:pos:R:3 gdb_53135=T pbc="F F F"
C        0.00110000       1.48520000       0.02300000
C        0.00350000       0.03060000       0.07370000
C       -0.00070000      -1.17370000       0.10910000
C        0.00890000      -2.61130000       0.14440000
C       -0.48540000      -3.42620000       1.30260000
C       -1.65320000      -2.70940000       1.99620000
C       -2.41880000      -2.82050000       0.64850000
O       -3.55970000      -2.63520000       0.33880000
C       -1.25220000      -3.47560000      -0.03860000
H        0.59960000       1.85140000      -0.81840000
H       -1.01550000       1.87440000      -0.09940000
H        0.41620000       1.91920000       0.93940000
H        0.85570000      -3.06440000      -0.36710000
H        0.10990000      -4.21840000       1.73680000
H       -2.15350000      -3.31520000       2.75690000
H       -1.45720000      -1.70910000       2.38800000
H       -1.28940000      -4.22970000      -0.81500000
