15
Properties=species:S:1:pos:R:3 gdb_64547=T pbc="F F F"
C       -0.09860000       1.70150000       0.57540000
C       -0.07050000       0.23380000       0.20910000
C       -1.32260000      -0.31390000      -0.41330000
O       -1.53680000      -1.48720000      -0.59500000
C        1.16340000      -0.45930000      -0.33040000
O        2.35630000       0.15350000       0.20620000
C        1.99000000      -0.27110000       1.48990000
O        2.62470000      -0.17930000       2.48520000
C        0.67590000      -0.85070000       1.02690000
H        0.90120000       2.07220000       0.80540000
H       -0.48800000       2.29210000      -0.26080000
H       -0.74130000       1.87850000       1.44310000
H       -2.05110000       0.46350000      -0.72990000
H        1.24090000      -1.01240000      -1.25490000
H        0.17340000      -1.74020000       1.37540000
