21
Properties=species:S:1:pos:R:3 gdb_92981=T pbc="F F F"
O        0.03790000       1.46100000       0.03920000
C       -0.06000000       0.04300000       0.00850000
C        0.65810000      -0.58750000       1.22670000
C       -0.46090000      -0.71050000       2.23810000
C       -1.65570000      -0.63360000       1.65070000
C       -1.53480000      -0.44950000       0.14800000
C       -2.57280000       0.44570000      -0.49170000
C       -2.96080000       0.25350000      -1.93510000
C       -3.93430000      -0.10490000      -0.83880000
H       -0.28110000       1.74920000       0.90270000
H        0.38180000      -0.24990000      -0.94680000
H        1.07290000      -1.57560000       0.98110000
H        1.49630000       0.03850000       1.55070000
H       -0.28840000      -0.88050000       3.29520000
H       -2.61470000      -0.72420000       2.14910000
H       -1.60940000      -1.44030000      -0.32970000
H       -2.54850000       1.47430000      -0.14730000
H       -3.15960000       1.13340000      -2.53630000
H       -2.49400000      -0.55950000      -2.48200000
H       -4.11990000      -1.15820000      -0.65270000
H       -4.80170000       0.52910000      -0.69100000
