18
Properties=species:S:1:pos:R:3 gdb_85549=T pbc="F F F"
O       -0.29880000       1.49280000       0.65730000
C       -0.06070000       0.20080000       0.10680000
C        0.82500000      -0.63770000       1.04120000
C        0.15880000      -0.83060000       2.40190000
O        0.79690000      -1.03000000       3.40720000
C       -1.36450000      -0.71030000       2.43460000
N       -2.02250000      -1.05980000       1.17090000
C       -2.66870000       0.02150000       0.42080000
C       -1.37920000      -0.53820000      -0.04730000
H        0.55310000       1.89470000       0.85770000
H        0.41250000       0.29080000      -0.88150000
H        0.98600000      -1.62940000       0.59800000
H        1.81500000      -0.19670000       1.19780000
H       -1.73710000      -1.36050000       3.23080000
H       -1.56480000       0.32830000       2.73810000
H       -3.59240000      -0.24950000      -0.08300000
H       -2.64510000       1.02050000       0.84690000
H       -1.37830000      -1.24770000      -0.87270000
