18
Properties=species:S:1:pos:R:3 gdb_7862=T pbc="F F F"
C        0.51600000       1.91880000       0.40710000
N        0.00700000       0.56120000       0.24170000
C        0.94260000      -0.42010000      -0.29990000
C        0.49880000      -0.52030000       1.11720000
C        1.43020000      -0.29330000       2.28610000
C        0.77350000       0.18940000       3.58640000
N       -0.52030000       0.61130000       3.48080000
O        1.38190000       0.19890000       4.63780000
H        1.59640000       1.98450000       0.60660000
H        0.31430000       2.47360000      -0.51440000
H       -0.01160000       2.41730000       1.22630000
H        0.55140000      -1.09870000      -1.05350000
H        1.96660000      -0.09070000      -0.47480000
H       -0.28130000      -1.25240000       1.32670000
H        1.94580000      -1.22640000       2.53640000
H        2.21990000       0.42430000       2.04420000
H       -1.02220000       0.61820000       2.60990000
H       -0.97590000       0.94440000       4.31440000
