21
Properties=species:S:1:pos:R:3 gdb_71050=T pbc="F F F"
C       -0.15270000       1.45870000      -0.03880000
C       -0.04840000      -0.04680000       0.01450000
C       -0.40030000      -0.88070000      -1.28620000
C       -0.52710000      -2.01790000      -0.27390000
C        0.58750000      -2.75100000      -0.07870000
C        1.36490000      -2.17710000       1.09300000
C        0.65520000      -0.80910000       1.24740000
C        1.07270000       0.03670000       2.43160000
C       -0.77360000      -1.03990000       0.88800000
H        0.69080000       1.89100000      -0.59030000
H       -1.07070000       1.75570000      -0.55970000
H       -0.17300000       1.92220000       0.94970000
H       -1.32970000      -0.47150000      -1.70310000
H        0.34430000      -1.00090000      -2.07960000
H        1.11660000      -3.21690000      -0.90610000
H        1.32970000      -2.71890000       2.05100000
H        2.42490000      -2.10910000       0.81390000
H        2.05490000       0.49740000       2.27410000
H        0.36180000       0.83390000       2.65980000
H        1.14790000      -0.59440000       3.32510000
H       -1.66330000      -0.92650000       1.49650000
