14
Properties=species:S:1:pos:R:3 gdb_2775=T pbc="F F F"
C       -0.03090000       1.38890000       0.06400000
N       -0.06110000      -0.05780000       0.23520000
C       -1.12360000      -0.68070000       0.02660000
O       -2.38200000      -0.25610000      -0.36360000
C       -2.84080000      -1.63980000      -0.50840000
C       -1.48820000      -2.15460000       0.02270000
O       -0.77820000      -2.97080000      -0.87300000
H        0.82180000       1.65410000      -0.56930000
H       -0.94470000       1.80340000      -0.37700000
H        0.13360000       1.86330000       1.03800000
H       -3.72400000      -1.82620000       0.10540000
H       -3.02230000      -1.88930000      -1.55580000
H       -1.54430000      -2.59600000       1.02690000
H        0.15750000      -2.76760000      -0.75920000
