13
Properties=species:S:1:pos:R:3 gdb_131934=T pbc="F F F"
N        0.00000000       1.34010000       0.16080000
C       -0.04650000      -0.03850000       0.04780000
N       -1.12840000      -0.77790000       0.05800000
C       -0.65840000      -2.06280000       0.01880000
C        0.70600000      -2.12340000      -0.02850000
N        1.09490000      -0.80280000      -0.00650000
N       -1.53200000      -3.20830000       0.01660000
O       -2.73650000      -3.01740000       0.07580000
O       -0.98380000      -4.30960000      -0.04570000
H        0.60240000       1.79960000      -0.51050000
H       -0.93390000       1.72830000       0.12850000
H        1.39330000      -2.94790000      -0.08040000
H        2.04240000      -0.46580000       0.04460000
