18
Properties=species:S:1:pos:R:3 gdb_45055=T pbc="F F F"
O        0.05920000       0.12750000      -0.59270000
C       -0.00610000       1.24330000      -0.13920000
C       -1.27530000       1.96170000       0.34680000
N       -0.88380000       3.26370000       0.89910000
C       -0.01470000       3.16980000       2.07840000
C        0.59220000       3.40110000       0.74140000
C        1.13690000       2.20290000       0.02920000
C        2.53240000       1.63650000       0.20180000
C        2.15990000       2.27970000      -1.09280000
H       -1.94360000       2.11170000      -0.50970000
H       -1.81430000       1.35050000       1.07760000
H       -0.11740000       3.98960000       2.78360000
H        0.13750000       2.19300000       2.53670000
H        0.94990000       4.38870000       0.46320000
H        3.19880000       2.16560000       0.87400000
H        2.60100000       0.55390000       0.22520000
H        1.98390000       1.63690000      -1.94830000
H        2.55960000       3.26220000      -1.32150000
