20
Properties=species:S:1:pos:R:3 gdb_38421=T pbc="F F F"
C        0.04570000       1.48140000      -0.10620000
C        1.23490000       0.59060000      -0.10260000
C        1.98440000       0.42570000       1.20820000
C        0.87740000       0.19130000       2.25040000
C        1.23790000      -0.45340000       3.60640000
C        0.78810000       0.88460000       4.22140000
O        0.47700000       1.42560000       2.92270000
C       -0.26380000      -0.42400000       1.41600000
N       -0.12750000       0.02220000       0.02040000
H       -0.13050000       2.10460000       0.76600000
H       -0.31320000       1.89010000      -1.04640000
H        1.76050000       0.38410000      -1.03050000
H        2.63770000      -0.45420000       1.15750000
H        2.59870000       1.28840000       1.47980000
H        0.63460000      -1.32270000       3.87700000
H        2.29420000      -0.69840000       3.73310000
H       -0.09620000       0.83870000       4.86840000
H        1.56860000       1.46320000       4.72990000
H       -0.17660000      -1.51800000       1.42740000
H       -1.24210000      -0.15290000       1.82340000
