20
Properties=species:S:1:pos:R:3 gdb_114495=T pbc="F F F"
C        0.14990000       1.53840000       0.10350000
C        0.01780000       0.01640000       0.09820000
N        0.62820000      -0.55700000      -1.08930000
C        2.09870000      -0.58450000      -1.26220000
C        2.01670000      -2.04650000      -1.76550000
C        2.26640000      -3.09580000      -0.65300000
C        0.79430000      -2.93620000      -0.22090000
O        0.15250000      -3.33640000       0.70750000
C        0.48620000      -1.98820000      -1.40950000
H        1.20170000       1.84390000       0.11840000
H       -0.31450000       1.97020000      -0.78780000
H       -0.33030000       1.96230000       0.99060000
H        0.44430000      -0.39630000       1.03060000
H       -1.04070000      -0.26920000       0.09070000
H        2.45900000       0.15890000      -1.98170000
H        2.67930000      -0.47360000      -0.33290000
H        2.38360000      -2.26480000      -2.76540000
H        2.43670000      -4.10450000      -1.04690000
H        3.03420000      -2.88180000       0.09670000
H       -0.35540000      -2.24480000      -2.06060000
