21
Properties=species:S:1:pos:R:3 gdb_108510=T pbc="F F F"
C       -0.06240000       1.51020000       0.07670000
C       -0.16840000      -0.00880000      -0.10640000
C        0.71750000      -0.52890000      -1.22520000
C        0.37330000      -0.04520000      -2.64030000
O        0.87060000      -1.04010000      -3.52660000
C        0.64460000      -2.29460000      -2.89540000
C        0.94150000      -2.06020000      -1.41570000
C        2.40830000      -1.73830000      -1.07320000
O        2.12830000      -0.33070000      -0.93690000
H        0.97890000       1.80020000       0.24290000
H       -0.42720000       2.04950000      -0.80390000
H       -0.65160000       1.84270000       0.93610000
H        0.12140000      -0.51080000       0.82380000
H       -1.20680000      -0.29820000      -0.31330000
H       -0.71940000       0.06400000      -2.74850000
H        0.85600000       0.90230000      -2.88870000
H       -0.40070000      -2.62050000      -3.02900000
H        1.29970000      -3.03010000      -3.37150000
H        0.41970000      -2.73950000      -0.74120000
H        2.78030000      -2.17160000      -0.13660000
H        3.13090000      -1.93600000      -1.87440000
