22
Properties=species:S:1:pos:R:3 gdb_7395=T pbc="F F F"
C       -0.08120000       1.51230000      -0.07560000
C       -0.02860000       0.01980000       0.20800000
O       -1.30050000      -0.53010000      -0.07350000
C       -1.38430000      -1.94640000      -0.01140000
C       -1.33470000      -2.47430000       1.42310000
C       -2.69770000      -2.33580000      -0.71950000
C       -2.77310000      -1.80780000      -2.14920000
O       -2.88790000      -3.74770000      -0.67240000
H        0.88700000       1.97580000       0.13680000
H       -0.33370000       1.69650000      -1.12380000
H       -0.84000000       1.99340000       0.54820000
H        0.73910000      -0.46610000      -0.41800000
H        0.25360000      -0.15490000       1.25750000
H       -0.54760000      -2.38420000      -0.58970000
H       -1.53480000      -3.54770000       1.42650000
H       -0.35950000      -2.30170000       1.88650000
H       -2.09820000      -1.97610000       2.02990000
H       -3.52660000      -1.91970000      -0.13390000
H       -1.95920000      -2.22540000      -2.75740000
H       -3.72330000      -2.09480000      -2.60750000
H       -2.67730000      -0.72080000      -2.16460000
H       -2.27830000      -4.14350000      -1.30530000
