16
Properties=species:S:1:pos:R:3 gdb_28911=T pbc="F F F"
N       -0.05170000       1.39460000       0.16680000
C       -0.00480000       0.01040000       0.05390000
C       -1.21130000      -0.69410000      -0.04170000
N       -2.43870000       0.00760000      -0.09050000
C       -1.12940000      -2.08530000      -0.14070000
O       -2.29890000      -2.77010000      -0.26170000
N       -0.00570000      -2.78660000      -0.13700000
C        1.13770000      -2.09750000      -0.01740000
C        1.19400000      -0.71870000       0.07810000
H        0.81420000       1.86550000      -0.05260000
H       -0.84200000       1.80360000      -0.31760000
H       -2.57170000       0.59210000       0.72960000
H       -3.21770000      -0.63510000      -0.16370000
H       -2.04710000      -3.70150000      -0.32080000
H        2.05080000      -2.68610000      -0.00310000
H        2.14710000      -0.20730000       0.15960000
