19
Properties=species:S:1:pos:R:3 gdb_113541=T pbc="F F F"
C       -0.35360000       1.38720000       0.33990000
C        0.13080000       0.00350000      -0.04600000
O        1.41970000       0.02200000      -0.71800000
C        2.05360000      -0.77400000       0.30630000
C        0.73560000      -0.86580000       1.06320000
O        0.59180000      -0.61090000       2.44630000
C        0.17570000      -1.90010000       1.92910000
C       -1.30370000      -2.17020000       2.03060000
O       -1.69270000      -2.42010000       3.36900000
H        0.35890000       1.87850000       1.00760000
H       -0.47490000       1.99980000      -0.55820000
H       -1.32060000       1.32770000       0.84970000
H       -0.61450000      -0.51180000      -0.66760000
H        2.45480000      -1.71620000      -0.08670000
H        2.84630000      -0.22990000       0.83430000
H        0.82110000      -2.72140000       2.24420000
H       -1.86220000      -1.32720000       1.59610000
H       -1.55870000      -3.07070000       1.46110000
H       -1.42480000      -1.65090000       3.88480000
