13
Properties=species:S:1:pos:R:3 gdb_5169=T pbc="F F F"
O       -0.50720000       0.47430000       0.63750000
C        0.09530000       0.93070000      -0.29550000
C        1.30160000       1.86020000      -0.15730000
C        1.26900000       2.99000000      -1.12250000
C        0.99940000       4.31690000      -1.04420000
N        1.09540000       4.88790000      -2.30810000
C        1.40590000       3.89810000      -3.07610000
O        1.53170000       2.70750000      -2.44150000
H       -0.18440000       0.69530000      -1.34580000
H        1.33840000       2.23000000       0.86960000
H        2.20000000       1.25030000      -0.32950000
H        0.74930000       4.90200000      -0.17350000
H        1.57660000       3.89940000      -4.14100000
