19
Properties=species:S:1:pos:R:3 gdb_77311=T pbc="F F F"
C       -0.47360000       1.51190000       0.01350000
C       -0.12580000       0.05640000      -0.00230000
C       -0.04940000      -0.76690000      -1.05060000
C        0.36310000      -2.17040000      -0.69070000
C        0.36660000      -2.15620000       0.85380000
C        1.55480000      -2.83040000       1.50680000
O        2.50800000      -3.26890000       0.91360000
C        0.29680000      -0.64570000       1.27250000
O        1.53450000      -0.13080000       1.77350000
H        0.31870000       2.09270000       0.49910000
H       -0.62410000       1.90370000      -0.99590000
H       -1.39040000       1.69280000       0.58930000
H       -0.25070000      -0.47130000      -2.07580000
H       -0.32850000      -2.92220000      -1.08700000
H        1.35430000      -2.42780000      -1.08300000
H       -0.53320000      -2.64960000       1.24210000
H        1.49650000      -2.89030000       2.61500000
H       -0.40400000      -0.49060000       2.09920000
H        2.15960000      -0.11400000       1.03850000
