23
Properties=species:S:1:pos:R:3 gdb_122338=T pbc="F F F"
C        0.26140000       1.43440000       0.50370000
C        0.21740000      -0.02000000       0.08030000
C        0.74290000      -0.48440000      -1.27290000
C        1.32940000       0.47310000      -2.28810000
C        1.48260000      -0.85400000      -0.01940000
O        2.72530000      -0.25270000       0.18130000
C        3.12820000      -0.20980000       1.54440000
C        4.40550000       0.61360000       1.59470000
O        4.20200000       1.91740000       1.08250000
H        1.26470000       1.85710000       0.41530000
H       -0.42010000       2.04820000      -0.09560000
H       -0.04060000       1.53780000       1.55130000
H       -0.65830000      -0.55730000       0.43610000
H        0.18450000      -1.30190000      -1.72250000
H        1.92580000       1.25670000      -1.81810000
H        1.98080000      -0.05840000      -2.99000000
H        0.53700000       0.95620000      -2.86980000
H        1.44510000      -1.89000000       0.32120000
H        2.34720000       0.26090000       2.15720000
H        3.30470000      -1.22750000       1.92840000
H        4.73390000       0.72270000       2.63330000
H        5.19890000       0.08600000       1.04240000
H        3.84670000       1.79560000       0.19480000
