23
Properties=species:S:1:pos:R:3 gdb_100154=T pbc="F F F"
C        0.15370000       1.58960000       0.04250000
C        0.03790000       0.06630000      -0.06180000
C        0.65040000      -0.55700000      -1.33220000
C        0.49350000      -2.08430000      -1.27350000
C        0.00140000       0.00240000      -2.60790000
O        2.04340000      -0.19500000      -1.25590000
C        2.89450000      -0.56120000      -2.30910000
C        4.29630000      -0.09880000      -1.94400000
O        5.25580000      -0.25430000      -2.65120000
H        1.19510000       1.90440000      -0.05730000
H       -0.43160000       2.09990000      -0.72860000
H       -0.21550000       1.93380000       1.01330000
H        0.53950000      -0.39260000       0.79810000
H       -1.01500000      -0.23500000      -0.00840000
H       -0.56530000      -2.35450000      -1.21660000
H        0.90590000      -2.57360000      -2.16110000
H        0.99910000      -2.48600000      -0.39050000
H        0.22070000       1.06630000      -2.72810000
H        0.34810000      -0.52220000      -3.50320000
H       -1.08500000      -0.12000000      -2.56010000
H        2.93090000      -1.64850000      -2.47940000
H        2.62110000      -0.09410000      -3.26770000
H        4.35430000       0.40140000      -0.95200000
