17
Properties=species:S:1:pos:R:3 gdb_45443=T pbc="F F F"
O       -0.02030000      -0.01020000       0.03710000
C        0.01140000       1.18610000       0.00710000
O       -1.12940000       1.93280000      -0.00100000
C       -0.86630000       3.35750000       0.01830000
C       -0.10570000       3.69830000       1.30610000
C        1.24540000       2.93310000       1.27180000
C        1.24960000       2.07990000      -0.00740000
O        1.19400000       2.93420000      -1.15440000
C       -0.02190000       3.68230000      -1.20930000
H       -1.84310000       3.84060000      -0.03050000
H        0.04290000       4.78030000       1.36620000
H       -0.71380000       3.40200000       2.16450000
H        2.09670000       3.61730000       1.22530000
H        1.37490000       2.29850000       2.15300000
H        2.14440000       1.46860000      -0.11440000
H       -0.56580000       3.41560000      -2.12390000
H        0.21000000       4.75500000      -1.24150000
