19
Properties=species:S:1:pos:R:3 gdb_82905=T pbc="F F F"
O       -0.00410000       1.43780000       0.12040000
C        0.01230000       0.03200000      -0.02150000
C       -1.37870000      -0.53250000      -0.38970000
C       -1.61970000       0.28840000      -1.67920000
C       -0.46120000      -0.39880000      -2.44520000
C       -1.06230000      -1.82340000      -2.49580000
C       -0.94780000      -1.97280000      -0.96930000
O        0.49510000      -1.96220000      -0.88440000
C        0.64880000      -0.59340000      -1.29210000
H        0.88340000       1.71520000       0.36580000
H        0.45430000      -0.44460000       0.85930000
H       -2.14300000      -0.52620000       0.38550000
H       -2.58700000       0.11080000      -2.15410000
H       -1.49770000       1.35590000      -1.50740000
H       -0.11580000       0.04980000      -3.37490000
H       -2.07190000      -1.82900000      -2.91230000
H       -0.45330000      -2.58350000      -2.98740000
H       -1.35080000      -2.85620000      -0.47750000
H        1.68690000      -0.37230000      -1.53830000
