17
Properties=species:S:1:pos:R:3 gdb_32825=T pbc="F F F"
N        0.28880000       1.42720000       0.10250000
C        0.02510000       0.06860000       0.03210000
C       -1.09710000      -0.69350000      -0.09990000
C       -2.53320000      -0.29010000      -0.15120000
C       -3.12240000      -0.34460000      -1.57140000
O       -4.48650000       0.04070000      -1.60990000
N       -0.69540000      -2.02910000      -0.22370000
C        0.58800000      -2.00140000      -0.14900000
O        1.11390000      -0.75050000       0.00440000
H        1.02080000       1.65620000       0.76450000
H       -0.54270000       1.97000000       0.29320000
H       -3.11730000      -0.95680000       0.49710000
H       -2.66500000       0.72540000       0.24210000
H       -2.59160000       0.36120000      -2.21870000
H       -2.96850000      -1.35010000      -1.98890000
H       -4.99400000      -0.63080000      -1.14310000
H        1.29210000      -2.81680000      -0.17960000
