19
Properties=species:S:1:pos:R:3 gdb_109574=T pbc="F F F"
C        0.35600000       1.76990000      -0.53170000
O        0.83620000       0.50930000      -0.08180000
C        0.75190000      -0.50940000      -1.03230000
C        1.07410000      -1.91980000      -0.44860000
O        0.76460000      -1.97010000       0.92280000
C       -0.08440000      -2.53140000      -1.30830000
C       -0.98250000      -3.61020000      -0.72450000
C       -0.63050000      -1.09760000      -1.42020000
O       -1.72320000      -0.62660000      -1.55700000
H        0.95270000       2.13560000      -1.38010000
H       -0.69530000       1.70960000      -0.83110000
H        0.46310000       2.46440000       0.30390000
H        1.34820000      -0.28960000      -1.93300000
H        2.07970000      -2.30720000      -0.64510000
H        0.83900000      -1.06630000       1.25750000
H        0.31340000      -2.82980000      -2.28760000
H       -1.25530000      -3.35670000       0.30160000
H       -1.89730000      -3.69960000      -1.31740000
H       -0.48090000      -4.58240000      -0.71730000
