21
Properties=species:S:1:pos:R:3 gdb_42086=T pbc="F F F"
C        0.19890000       1.61650000      -0.40300000
C        1.44260000       1.89970000       0.44950000
C        2.09370000       0.48850000       0.63500000
C        3.46760000       0.29940000      -0.07010000
C        4.54550000       0.46980000       1.02840000
C        3.76610000       0.22040000       2.29820000
C        2.45270000       0.22760000       2.08220000
C        0.98260000      -0.44660000       0.07010000
O       -0.20910000       0.31310000      -0.01760000
H       -0.63410000       2.30060000      -0.22240000
H        0.44400000       1.64370000      -1.47870000
H        2.12770000       2.61440000      -0.01420000
H        1.14380000       2.30720000       1.41960000
H        3.52440000      -0.72010000      -0.46780000
H        3.60080000       0.97940000      -0.91660000
H        5.38700000      -0.21990000       0.89740000
H        4.97690000       1.48060000       1.03120000
H        4.24180000       0.08950000       3.26410000
H        1.68450000       0.11080000       2.84040000
H        1.27850000      -0.81170000      -0.92810000
H        0.78610000      -1.31390000       0.70680000
