17
Properties=species:S:1:pos:R:3 gdb_107930=T pbc="F F F"
O       -0.05490000       1.34570000      -0.41380000
C       -0.10150000       0.03960000       0.13750000
C       -1.46270000      -0.56190000       0.05020000
O       -2.50310000       0.01650000       0.86330000
C       -3.29230000      -1.15390000       0.51970000
C       -2.00500000      -1.94780000       0.08980000
C       -2.12850000      -1.14180000      -1.20740000
C       -3.61920000      -0.93470000      -0.98950000
O       -4.34130000      -1.99840000      -1.57100000
H       -0.73370000       1.86310000       0.03340000
H        0.60520000      -0.57140000      -0.43370000
H        0.22500000       0.03680000       1.18890000
H       -4.04670000      -1.42210000       1.25790000
H       -1.58550000      -2.91590000       0.32250000
H       -1.60040000      -1.27630000      -2.14210000
H       -4.04960000       0.04420000      -1.24280000
H       -5.26750000      -1.89150000      -1.33050000
