16
Properties=species:S:1:pos:R:3 gdb_126205=T pbc="F F F"
C        0.16060000       1.61160000      -0.15380000
C       -0.08100000       0.10940000       0.08400000
C        0.57730000      -0.39230000       1.32420000
C        0.10800000      -0.88710000       2.51760000
C       -1.26640000      -1.10050000       2.95320000
O       -1.57240000      -1.54360000       4.03820000
C        1.30180000      -1.15500000       3.25590000
N        2.37760000      -0.85550000       2.58660000
O        1.91300000      -0.36640000       1.34840000
H        1.22940000       1.82510000      -0.23030000
H       -0.32210000       1.92720000      -1.08240000
H       -0.24870000       2.20890000       0.66580000
H       -1.15270000      -0.09830000       0.14940000
H        0.30420000      -0.46370000      -0.76760000
H       -2.04480000      -0.82450000       2.20850000
H        1.38200000      -1.55920000       4.25460000
