22
Properties=species:S:1:pos:R:3 gdb_88175=T pbc="F F F"
C       -0.32440000       1.38410000       0.16620000
N       -0.09650000      -0.04890000       0.25680000
C        1.16900000      -0.57230000      -0.25970000
C        0.89800000      -0.58620000       1.20020000
C        1.62880000       0.27300000       2.23670000
C        1.51050000      -0.52260000       3.56420000
C        0.27310000      -1.41250000       3.37040000
C        0.41050000      -1.86860000       1.90780000
O       -0.74230000      -2.40810000       1.32030000
H        0.59110000       1.98830000       0.25770000
H       -0.78150000       1.60640000      -0.80300000
H       -1.02260000       1.69660000       0.94950000
H        1.09750000      -1.48950000      -0.84010000
H        1.89350000       0.15150000      -0.63220000
H        2.66920000       0.46590000       1.96130000
H        1.14290000       1.24940000       2.33580000
H        2.39850000      -1.14970000       3.70320000
H        1.44200000       0.13190000       4.43660000
H        0.21780000      -2.24750000       4.07310000
H       -0.64930000      -0.82660000       3.47080000
H        1.20770000      -2.62610000       1.85130000
H       -1.10370000      -1.67990000       0.78380000
