21
Properties=species:S:1:pos:R:3 gdb_26087=T pbc="F F F"
C        0.23440000       1.50290000       0.25640000
C        0.02990000      -0.00090000       0.00880000
C        0.52990000      -0.80070000       1.23320000
C       -1.47210000      -0.29030000      -0.21320000
C        0.80560000      -0.41630000      -1.21130000
C        1.61140000       0.23380000      -2.09660000
C        2.05210000      -0.74270000      -3.05130000
C        1.48220000      -1.91430000      -2.67650000
O        0.72200000      -1.73630000      -1.56200000
H        1.28960000       1.73950000       0.42530000
H       -0.11840000       2.09840000      -0.59150000
H       -0.32620000       1.81510000       1.14300000
H       -0.04170000      -0.52710000       2.12650000
H        0.41690000      -1.87580000       1.07020000
H        1.58740000      -0.59700000       1.42850000
H       -1.85950000       0.28150000      -1.06230000
H       -1.63970000      -1.35150000      -0.41520000
H       -2.04880000      -0.01490000       0.67630000
H        1.86600000       1.28120000      -2.07890000
H        2.70350000      -0.58520000      -3.89660000
H        1.50910000      -2.91750000      -3.06870000
