19
Properties=species:S:1:pos:R:3 gdb_41430=T pbc="F F F"
C       -0.03970000       1.55860000      -0.02950000
C        1.49420000       1.87890000      -0.01970000
C        2.02080000       0.45680000       0.03650000
C        3.39960000      -0.16600000       0.07680000
O        3.04500000      -1.56700000       0.12040000
C        1.61520000      -1.54000000       0.10000000
C        1.11320000      -0.39640000       1.00210000
C       -0.01400000       0.01730000       0.02410000
C        1.13890000      -0.46190000      -0.89210000
H       -0.55940000       1.99190000       0.83100000
H       -0.53540000       1.93100000      -0.93180000
H        1.81740000       2.41530000      -0.91760000
H        1.79340000       2.47620000       0.84750000
H        4.00570000       0.03820000      -0.81450000
H        3.98150000       0.09980000       0.96800000
H        1.22620000      -2.55670000       0.12980000
H        1.11680000      -0.34180000       2.09290000
H       -0.97090000      -0.50770000       0.02920000
H        1.17220000      -0.48270000      -1.98360000
