16
Properties=species:S:1:pos:R:3 gdb_35064=T pbc="F F F"
N       -0.24380000      -1.15270000      -0.17540000
C       -0.11880000      -0.00670000      -0.08330000
C       -0.01960000       1.42140000       0.00370000
C        0.50960000       2.11130000       1.26110000
C        1.02610000       1.31870000       2.44740000
O        2.04080000       0.39820000       2.07250000
C        2.99830000       0.99670000       1.25270000
O        2.48500000       1.30980000      -0.02890000
C        1.34780000       2.10670000       0.01410000
H       -0.80950000       1.94660000      -0.52390000
H        0.00510000       3.03630000       1.52060000
H        1.42000000       2.02740000       3.19350000
H        0.23450000       0.72860000       2.91640000
H        3.39290000       1.91200000       1.72870000
H        3.79540000       0.27090000       1.09030000
H        1.43710000       3.01030000      -0.58300000
