18
Properties=species:S:1:pos:R:3 gdb_85706=T pbc="F F F"
C       -0.02620000       1.59320000      -0.14530000
C        0.09410000       0.08770000       0.00850000
C        1.06200000      -0.69770000      -0.91340000
C        1.41110000      -1.63130000       0.28490000
C        2.76540000      -2.10610000       0.45120000
C        3.89790000      -2.48550000       0.58620000
C        0.84390000      -0.51780000       1.25450000
C        1.85870000       0.35680000       1.81850000
N        2.65150000       1.07180000       2.26300000
H        0.95020000       2.08100000      -0.07150000
H       -0.45740000       1.84060000      -1.12110000
H       -0.67470000       2.02290000       0.62540000
H       -0.89840000      -0.37400000      -0.02220000
H        0.65200000      -1.17130000      -1.80710000
H        1.92730000      -0.09060000      -1.19230000
H        0.71130000      -2.47270000       0.31370000
H        4.89990000      -2.81450000       0.71090000
H        0.21100000      -0.88820000       2.06430000
