12
Properties=species:S:1:pos:R:3 gdb_132111=T pbc="F F F"
N        0.04120000       1.35050000       0.00740000
C       -0.01490000       0.01010000       0.00090000
C       -1.19530000      -0.71530000       0.00350000
F       -2.36760000      -0.05080000       0.01290000
C       -1.11270000      -2.09680000      -0.00390000
N        0.01540000      -2.78740000      -0.01330000
C        1.19750000      -2.14430000      -0.01620000
O        2.31330000      -2.55400000      -0.02410000
O        1.13160000      -0.62580000      -0.00830000
H        0.93430000       1.81220000       0.00500000
H       -0.80800000       1.88740000       0.01450000
H       -2.03930000      -2.67000000      -0.00200000
