13
Properties=species:S:1:pos:R:3 gdb_124106=T pbc="F F F"
C        0.03480000       1.40800000       0.00420000
O        1.32790000       1.91450000      -0.02050000
C        2.04420000       1.69320000       1.20020000
C        1.87420000       0.24940000       1.55050000
N        2.53970000      -0.52160000       2.35660000
O        1.95540000      -1.75820000       2.23910000
N        0.90570000      -1.75400000       1.34230000
C        0.85460000      -0.52200000       0.92190000
O       -0.00480000      -0.03750000       0.02000000
H       -0.52350000       1.76770000       0.88250000
H       -0.45680000       1.70100000      -0.92210000
H        3.08570000       1.95360000       1.00310000
H        1.66390000       2.35080000       1.99520000
