13
Properties=species:S:1:pos:R:3 gdb_27392=T pbc="F F F"
N        0.09770000       1.29110000       0.13010000
C       -0.05200000      -0.05210000       0.04640000
N       -1.16980000      -0.65430000       0.02020000
C       -1.17410000      -2.05550000      -0.00310000
N       -2.28270000      -2.67910000      -0.01380000
N        0.07900000      -2.72750000      -0.02030000
C        1.12700000      -2.01570000      -0.00430000
O        2.36330000      -2.50440000      -0.02180000
O        1.19460000      -0.66280000       0.03290000
H        0.98540000       1.68910000      -0.12650000
H       -0.73260000       1.83610000      -0.03300000
H       -2.08690000      -3.68050000      -0.03380000
H        2.27080000      -3.46760000      -0.04680000
