23
Properties=species:S:1:pos:R:3 gdb_89059=T pbc="F F F"
C       -0.04300000       1.53180000      -0.31320000
C        0.01050000       0.04720000      -0.02210000
C        1.30230000      -0.69700000      -0.01070000
N        0.54210000      -0.51040000       1.22330000
C        1.10260000       0.37340000       2.23760000
C        1.90970000      -0.44950000       3.24250000
N        2.49020000       0.41870000       4.26010000
C        1.67800000       0.64760000       5.45180000
C        2.88370000      -0.22370000       5.50750000
H        0.88140000       2.04560000      -0.04010000
H       -0.20850000       1.69340000      -1.38370000
H       -0.86970000       2.01090000       0.22330000
H       -0.87100000      -0.49260000      -0.36780000
H        1.37220000      -1.71500000      -0.38570000
H        2.20840000      -0.10420000      -0.13990000
H        1.75440000       1.16360000       1.83390000
H        0.27430000       0.87000000       2.75780000
H        1.26230000      -1.23470000       3.67040000
H        2.73020000      -0.95660000       2.72040000
H        1.70250000       1.65450000       5.85880000
H        0.70810000       0.15490000       5.51010000
H        2.71610000      -1.29540000       5.60520000
H        3.80640000       0.13500000       5.95510000
