17
Properties=species:S:1:pos:R:3 gdb_29934=T pbc="F F F"
C       -0.02740000       1.43940000       0.02540000
N       -0.01910000      -0.00690000       0.00110000
C       -0.01730000      -0.77720000      -1.11230000
C       -0.01360000      -2.11770000      -0.76710000
C       -0.01650000      -2.17460000       0.64650000
N       -0.06970000      -3.27390000       1.45900000
C       -0.01160000      -0.84660000       1.12160000
C        0.05370000      -0.43180000       2.48170000
O        0.08580000      -1.20920000       3.43590000
H        0.86370000       1.83390000       0.52560000
H       -0.03920000       1.80750000      -1.00200000
H       -0.91360000       1.82200000       0.54260000
H       -0.02420000      -0.32020000      -2.09080000
H       -0.01930000      -2.94990000      -1.45350000
H        0.29430000      -4.13970000       1.09650000
H        0.11610000      -3.07330000       2.43450000
H        0.08640000       0.66490000       2.66110000
