16
Properties=species:S:1:pos:R:3 gdb_3438=T pbc="F F F"
C       -0.08460000       1.57320000       0.04410000
C        0.02380000       0.04180000       0.00560000
C        0.81750000      -0.48930000      -1.17860000
C        1.81200000      -1.30180000      -0.81580000
C        1.88040000      -1.41000000       0.67190000
N        2.17880000      -0.09640000       1.31780000
C        0.77880000      -0.55980000       1.19520000
H        0.90950000       2.01540000       0.14520000
H       -0.54790000       1.95870000      -0.87000000
H       -0.69640000       1.90060000       0.89140000
H       -0.99320000      -0.37720000      -0.01850000
H        0.59310000      -0.18830000      -2.19670000
H        2.50960000      -1.79210000      -1.48430000
H        2.21280000      -2.31800000       1.16370000
H        2.48380000      -0.26830000       2.27480000
H        0.23710000      -0.81290000       2.10050000
