20
Properties=species:S:1:pos:R:3 gdb_71579=T pbc="F F F"
C       -0.03640000       1.48920000       0.08940000
C        0.01240000      -0.01150000      -0.00710000
C        0.93560000      -0.77000000      -0.99570000
C        0.82840000      -1.84720000       0.07660000
N        0.74350000      -0.77010000       1.15060000
C       -0.29430000      -1.59210000       1.85740000
C       -0.69920000      -2.10200000       0.45820000
O       -1.42240000      -3.25980000       0.19790000
C       -1.30050000      -0.81910000      -0.13220000
H        0.96870000       1.90190000       0.21480000
H       -0.47980000       1.92200000      -0.81470000
H       -0.64290000       1.80690000       0.94470000
H        0.56020000      -0.96600000      -2.00260000
H        1.94290000      -0.34790000      -1.03260000
H        1.54390000      -2.66020000       0.21910000
H        0.21880000      -2.33570000       2.47780000
H       -1.03060000      -1.04970000       2.46000000
H       -0.99560000      -3.99410000       0.65140000
H       -2.12970000      -0.43390000       0.46790000
H       -1.63570000      -0.93010000      -1.16650000
