20
Properties=species:S:1:pos:R:3 gdb_92965=T pbc="F F F"
C        0.08080000       1.58540000      -0.02110000
C        0.02610000       0.05790000       0.03340000
C        0.70870000      -0.62110000      -1.19130000
C        1.94970000      -1.25130000      -0.60260000
C        1.92970000      -1.14640000       0.72630000
N        0.79790000      -0.46350000       1.19150000
C        0.34010000      -0.34150000       2.47770000
C        1.20580000      -0.95050000       3.56970000
O       -0.71110000       0.22900000       2.72290000
H        1.11550000       1.93010000      -0.12170000
H       -0.48540000       1.94670000      -0.88590000
H       -0.35240000       2.01290000       0.88450000
H       -1.01220000      -0.25920000       0.15400000
H        0.06040000      -1.37250000      -1.66020000
H        0.93860000       0.11890000      -1.96630000
H        2.72560000      -1.73490000      -1.17790000
H        2.65790000      -1.51040000       1.43590000
H        2.20510000      -0.50320000       3.58650000
H        0.71530000      -0.76400000       4.52440000
H        1.32580000      -2.02990000       3.43170000
