21
Properties=species:S:1:pos:R:3 gdb_29771=T pbc="F F F"
C       -0.04620000       1.45880000       0.02650000
N       -0.00140000       0.01430000       0.03440000
C        0.00440000      -0.78680000      -1.08600000
C        0.04570000      -2.10330000      -0.69340000
C        0.06990000      -3.31170000      -1.57770000
C        0.06160000      -2.09430000       0.73860000
N        0.10130000      -3.20920000       1.63350000
C        0.02860000      -0.77920000       1.16040000
C        0.02300000      -0.23340000       2.54690000
H        0.82010000       1.88870000       0.54150000
H       -0.03850000       1.80750000      -1.00790000
H       -0.95400000       1.83670000       0.51070000
H       -0.02010000      -0.34770000      -2.07190000
H        0.95660000      -3.93340000      -1.39930000
H       -0.80280000      -3.95840000      -1.41860000
H        0.07570000      -3.02810000      -2.63420000
H       -0.60380000      -3.89680000       1.38390000
H        0.99440000      -3.69190000       1.57790000
H        0.91180000       0.37200000       2.76940000
H       -0.85330000       0.39630000       2.74820000
H        0.00410000      -1.07530000       3.24230000
