19
Properties=species:S:1:pos:R:3 gdb_89329=T pbc="F F F"
C       -0.08370000       1.57430000       0.08220000
C        0.02790000       0.06150000      -0.01930000
C        1.12410000      -0.56060000      -0.96060000
C        1.72600000      -1.29930000       0.24550000
C        2.34810000      -2.65980000       0.25940000
N        2.12000000      -0.24210000       1.19280000
C        0.69290000      -0.68520000       1.15590000
C        0.06680000      -1.23660000       2.30930000
N       -0.45440000      -1.69180000       3.23860000
H        0.88140000       2.01200000       0.34960000
H       -0.40460000       2.00120000      -0.87370000
H       -0.81750000       1.86480000       0.84130000
H       -0.94490000      -0.38920000      -0.23310000
H        0.70180000      -1.23240000      -1.71060000
H        1.80250000       0.14890000      -1.43990000
H        3.35060000      -2.63100000      -0.18280000
H        2.43740000      -3.04220000       1.28150000
H        1.74770000      -3.37060000      -0.31660000
H        2.55420000      -0.69120000       2.00010000
