20
Properties=species:S:1:pos:R:3 gdb_103111=T pbc="F F F"
C        0.07820000       1.25500000       0.33240000
O       -0.07240000      -0.04660000      -0.21970000
C       -1.33380000      -0.61340000      -0.09440000
C       -2.45620000       0.09350000      -0.82450000
C       -1.32520000      -2.10720000      -0.00620000
C       -0.04430000      -2.90430000      -0.08840000
C       -1.67060000      -1.29130000       1.25120000
C       -0.74180000      -1.23130000       2.33950000
N       -0.00270000      -1.17850000       3.22950000
H        1.13950000       1.49840000       0.25640000
H       -0.49740000       2.00460000      -0.22540000
H       -0.21850000       1.28080000       1.38750000
H       -2.20460000       0.19240000      -1.88540000
H       -3.38750000      -0.47340000      -0.74370000
H       -2.64010000       1.09350000      -0.42020000
H       -2.19230000      -2.59480000      -0.44410000
H        0.79300000      -2.35600000       0.34420000
H       -0.14800000      -3.85630000       0.44100000
H        0.19770000      -3.12100000      -1.13370000
H       -2.71030000      -1.27720000       1.56190000
