16
Properties=species:S:1:pos:R:3 gdb_42909=T pbc="F F F"
O       -0.09760000       0.01750000      -0.22880000
C       -0.07930000       1.19880000      -0.07840000
C       -1.15280000       2.30820000       0.02620000
C       -2.20430000       2.22880000       1.10010000
C       -2.71830000       0.93540000       1.57190000
O       -1.79580000       1.69590000       2.36280000
C        0.04950000       3.25180000       0.17130000
C        0.94720000       2.82940000       1.25390000
N        1.04830000       2.10880000      -0.06020000
H       -1.63340000       2.42790000      -0.95200000
H       -2.85420000       3.10160000       1.17940000
H       -3.72870000       0.87630000       1.97170000
H       -2.31450000       0.02040000       1.14530000
H        0.17590000       4.17920000      -0.37340000
H        1.83050000       3.42780000       1.44900000
H        0.54840000       2.29140000       2.10710000
