20
Properties=species:S:1:pos:R:3 gdb_30678=T pbc="F F F"
C       -0.34820000       1.65170000      -0.18280000
C       -0.00850000       0.16120000      -0.05910000
C       -1.27230000      -0.66490000       0.22220000
O       -1.83440000      -0.22550000       1.45190000
C        0.71080000      -0.39090000      -1.26340000
C        0.77910000       0.15900000      -2.52630000
N        1.51200000      -0.68460000      -3.32380000
C        1.92130000      -1.77160000      -2.59580000
C        1.44000000      -1.61960000      -1.31810000
H        0.55560000       2.25050000      -0.32910000
H       -1.01590000       1.83270000      -1.03370000
H       -0.85870000       1.99750000       0.71810000
H        0.63900000       0.03260000       0.81930000
H       -1.97960000      -0.53430000      -0.61320000
H       -1.00930000      -1.73250000       0.26600000
H       -2.65080000      -0.71090000       1.59930000
H        0.37870000       1.07920000      -2.91890000
H        1.73180000      -0.51830000      -4.28960000
H        2.51790000      -2.54980000      -3.04400000
H        1.59590000      -2.30570000      -0.49870000
