19
Properties=species:S:1:pos:R:3 gdb_110478=T pbc="F F F"
C        0.16730000       1.27140000       0.21150000
O       -0.27800000      -0.00630000      -0.18210000
C        0.49140000      -0.57590000      -1.20180000
C        1.88990000      -1.18520000      -0.90020000
C        1.67020000      -2.32930000       0.11320000
C        0.36240000      -2.92320000      -0.41520000
C        1.69270000      -3.42010000      -0.93450000
C        1.60660000      -2.28260000      -1.99930000
C        0.09940000      -1.99940000      -1.62590000
H        1.19370000       1.24740000       0.60750000
H        0.13940000       1.98820000      -0.62470000
H       -0.50400000       1.62370000       0.99860000
H        0.55130000       0.09260000      -2.07800000
H        2.80450000      -0.59600000      -0.85400000
H        1.94930000      -2.37840000       1.15680000
H       -0.35110000      -3.41950000       0.22800000
H        2.14170000      -4.40420000      -0.93640000
H        2.00870000      -2.26880000      -3.00820000
H       -0.74610000      -2.20460000      -2.28000000
