18
Properties=species:S:1:pos:R:3 gdb_108546=T pbc="F F F"
O        0.07510000       1.39190000       0.06650000
C        0.00860000      -0.01870000      -0.12330000
C       -1.41040000      -0.53080000      -0.07820000
C       -2.43630000       0.00700000      -1.06920000
O       -3.62500000      -0.71800000      -0.68950000
C       -3.16040000      -1.50610000       0.37520000
C       -1.72540000      -2.05570000       0.10450000
N       -1.34940000      -1.94710000       1.56070000
C       -2.17290000      -0.71640000       1.28520000
H       -0.14340000       1.57050000       0.98660000
H        0.44050000      -0.20240000      -1.11390000
H        0.61260000      -0.56110000       0.61450000
H       -2.60070000       1.08450000      -0.96920000
H       -2.18030000      -0.21600000      -2.11240000
H       -3.94620000      -2.13670000       0.79230000
H       -1.40580000      -2.88710000      -0.52590000
H       -1.90390000      -2.61370000       2.10700000
H       -2.38720000       0.03350000       2.04930000
