20
Properties=species:S:1:pos:R:3 gdb_52726=T pbc="F F F"
C       -0.04570000       1.46500000      -0.02260000
C        0.00950000       0.00980000      -0.01850000
C        0.05570000      -1.19350000      -0.00040000
C        0.10130000      -2.65510000      -0.00970000
C       -1.30490000      -3.27810000       0.07980000
C        0.85420000      -3.13060000      -1.26110000
O        1.01250000      -4.54670000      -1.16940000
C        1.31910000      -5.20020000      -2.30550000
N        1.56690000      -6.43740000      -2.27640000
H        0.50190000       1.88660000       0.82750000
H        0.39480000       1.87740000      -0.93700000
H       -1.07890000       1.82420000       0.03770000
H        0.68410000      -2.99780000       0.85590000
H       -1.23370000      -4.36780000       0.06410000
H       -1.80150000      -2.96880000       1.00260000
H       -1.92380000      -2.95290000      -0.76260000
H        0.28770000      -2.86510000      -2.16360000
H        1.83770000      -2.64890000      -1.31470000
H        1.31420000      -4.55630000      -3.19650000
H        1.75960000      -6.77360000      -3.21760000
