23
Properties=species:S:1:pos:R:3 gdb_112629=T pbc="F F F"
C        0.24390000       1.37670000       0.25130000
C       -0.09690000      -0.07120000       0.07990000
C       -0.06370000      -0.80930000      -1.03800000
C        0.31960000      -0.39090000      -2.42370000
C       -0.52890000      -2.22820000      -0.77960000
C       -0.58580000      -2.34220000       0.76520000
C        0.62840000      -3.10460000       1.29080000
O        0.54060000      -3.17330000       2.70730000
C       -0.59150000      -0.87460000       1.26400000
H        1.04110000       1.50720000       0.99480000
H        0.57150000       1.84890000      -0.67820000
H       -0.62050000       1.94050000       0.62670000
H        0.61510000       0.65950000      -2.48100000
H        1.15410000      -0.99560000      -2.80280000
H       -0.51230000      -0.54250000      -3.12450000
H       -1.51200000      -2.40480000      -1.23950000
H        0.14470000      -2.97370000      -1.22640000
H       -1.47810000      -2.87910000       1.09980000
H        0.64700000      -4.11340000       0.84790000
H        1.54810000      -2.58620000       0.97240000
H        1.34690000      -3.57750000       3.04010000
H        0.03220000      -0.75330000       2.15740000
H       -1.60000000      -0.54820000       1.55660000
