21
Properties=species:S:1:pos:R:3 gdb_64494=T pbc="F F F"
C       -0.12320000       1.57350000       0.10190000
C       -0.00510000       0.04600000       0.00730000
C       -1.41830000      -0.46570000      -0.23330000
C       -2.09770000      -0.28920000      -1.52660000
O       -1.67350000      -1.58000000      -1.09130000
C        1.17530000      -0.61930000      -0.79140000
C        2.14420000      -0.13310000       0.32670000
C        0.89440000      -0.69680000       1.06750000
C        0.97840000      -1.89850000       0.08250000
H        0.78350000       2.06490000       0.45530000
H       -0.38290000       2.00530000      -0.87060000
H       -0.92720000       1.84390000       0.79700000
H       -2.05420000      -0.45210000       0.65570000
H       -3.17530000      -0.13560000      -1.56340000
H       -1.54230000       0.11810000      -2.37080000
H        1.34070000      -0.57630000      -1.86970000
H        3.05790000      -0.72180000       0.44060000
H        2.36440000       0.93110000       0.39950000
H        0.72960000      -0.73510000       2.14680000
H        0.08520000      -2.49290000      -0.08560000
H        1.86500000      -2.52850000       0.19160000
