22
Properties=species:S:1:pos:R:3 gdb_86262=T pbc="F F F"
C       -1.32680000       0.57290000      -1.29320000
C       -0.09940000      -0.24840000      -0.93500000
C        1.31450000       0.25170000      -1.32820000
C        1.86650000      -0.34300000      -0.00710000
C        2.98340000       0.36540000       0.74120000
C        0.39320000      -0.32680000       0.56480000
C        0.05380000       0.90940000       1.41000000
C       -0.00130000      -1.53690000       1.27690000
N       -0.30760000      -2.50770000       1.82710000
H       -1.23790000       1.61140000      -0.96030000
H       -1.46580000       0.58650000      -2.37960000
H       -2.23470000       0.15070000      -0.84940000
H       -0.22970000      -1.27310000      -1.29630000
H        1.73820000      -0.11970000      -2.26380000
H        1.37000000       1.34570000      -1.33420000
H        2.14680000      -1.38750000      -0.17460000
H        2.75240000       1.41930000       0.92290000
H        3.18230000      -0.11010000       1.70770000
H        3.90960000       0.32740000       0.15770000
H        0.34130000       1.82900000       0.89450000
H       -1.01920000       0.95570000       1.61440000
H        0.57860000       0.87880000       2.36850000
