19
Properties=species:S:1:pos:R:3 gdb_83800=T pbc="F F F"
O        0.18020000       1.37890000      -0.06980000
C        0.03630000      -0.00020000      -0.00920000
C       -0.41870000      -0.70250000       1.25350000
C       -0.84450000       0.13680000       2.45180000
C       -2.36990000       0.19650000       2.66200000
C       -3.12400000       0.52860000       1.39470000
O       -2.52190000       1.48400000       0.49910000
C       -2.59570000       0.09470000       0.09120000
C       -1.31620000      -0.68000000       0.01460000
H       -0.67550000       1.77180000       0.15630000
H        0.81290000      -0.48820000      -0.59060000
H        0.05470000      -1.65180000       1.48300000
H       -0.37860000      -0.26080000       3.35730000
H       -0.46150000       1.15590000       2.33110000
H       -2.74900000      -0.77010000       3.02130000
H       -2.60980000       0.93320000       3.43760000
H       -4.20050000       0.66170000       1.49730000
H       -3.29570000      -0.06810000      -0.72650000
H       -1.41060000      -1.59830000      -0.55720000
