14
Properties=species:S:1:pos:R:3 gdb_17984=T pbc="F F F"
C        0.13930000      -1.13940000       0.27920000
C        0.09970000       0.05450000       0.15020000
C        0.04290000       1.49010000      -0.02520000
O       -0.34950000       2.23530000       1.17130000
C        0.82950000       3.05560000       1.11510000
C        2.02700000       2.45360000       1.86930000
O        2.44010000       1.72080000       0.68170000
C        1.38190000       2.28150000      -0.09480000
H        0.18390000      -2.19410000       0.39680000
H       -0.63130000       1.75050000      -0.85270000
H        0.61570000       4.12230000       1.18930000
H        2.79900000       3.16980000       2.17570000
H        1.76370000       1.79560000       2.70300000
H        1.70530000       2.66510000      -1.06350000
