23
Properties=species:S:1:pos:R:3 gdb_107723=T pbc="F F F"
C        0.17660000       1.44930000       0.26740000
C       -0.10460000      -0.00500000      -0.13580000
C        0.64940000      -0.43260000      -1.36310000
C        0.43600000       0.04350000      -2.80180000
C        1.31380000      -1.16660000      -3.23670000
C        1.15540000      -1.80150000      -4.59250000
C        2.71970000      -0.79640000      -2.67570000
C        2.09790000      -0.95370000      -1.29200000
C        0.98730000      -1.82980000      -1.82700000
H        1.23990000       1.59780000       0.48210000
H       -0.09830000       2.14100000      -0.53600000
H       -0.39250000       1.73070000       1.15880000
H        0.15340000      -0.67370000       0.69600000
H       -1.18210000      -0.13440000      -0.30570000
H       -0.60830000      -0.08850000      -3.10600000
H        0.77840000       1.04440000      -3.09470000
H        1.45370000      -1.10420000      -5.38520000
H        1.77680000      -2.69880000      -4.68910000
H        0.11570000      -2.09160000      -4.78050000
H        3.45070000      -1.58630000      -2.87680000
H        3.13950000       0.17450000      -2.96780000
H        2.60230000      -1.04380000      -0.33750000
H        0.62310000      -2.80230000      -1.52540000
