20
Properties=species:S:1:pos:R:3 gdb_57927=T pbc="F F F"
C        0.19800000       1.36560000      -0.39340000
C       -0.01640000      -0.07410000       0.08140000
C        0.63860000      -0.32270000       1.45530000
C       -1.51720000      -0.37680000       0.19240000
O       -2.33600000       0.45390000       0.49220000
N       -1.82670000      -1.72420000      -0.04950000
C       -3.07700000      -2.35830000       0.04570000
C       -3.00580000      -3.83960000      -0.29980000
O       -4.09210000      -1.79740000       0.36420000
H        1.26510000       1.60590000      -0.41390000
H       -0.20840000       1.51900000      -1.39730000
H       -0.30900000       2.06130000       0.27910000
H        0.43260000      -0.76410000      -0.64590000
H        0.49840000      -1.35430000       1.79390000
H        1.71360000      -0.12560000       1.40580000
H        0.20230000       0.34130000       2.20760000
H       -1.05240000      -2.31260000      -0.31710000
H       -2.31730000      -4.36550000       0.37060000
H       -4.00250000      -4.26730000      -0.20040000
H       -2.64950000      -3.98510000      -1.32540000
