21
Properties=species:S:1:pos:R:3 gdb_117787=T pbc="F F F"
C        0.18030000       1.39160000       0.09400000
N       -0.05960000      -0.04750000       0.03800000
C       -1.45790000      -0.49570000      -0.04700000
C       -2.23620000       0.06630000      -1.26190000
C       -1.42300000      -2.04540000      -0.06850000
C       -2.77930000      -2.75710000      -0.02480000
O       -2.62290000      -4.16670000      -0.03030000
C       -2.13900000      -0.05430000       1.19200000
N       -2.69170000       0.28850000       2.14730000
H        1.25470000       1.55720000       0.21140000
H       -0.15560000       1.95950000      -0.78790000
H       -0.31680000       1.80860000       0.97490000
H        0.44990000      -0.46010000      -0.73610000
H       -1.76910000      -0.29230000      -2.18490000
H       -3.28130000      -0.25280000      -1.25560000
H       -2.22400000       1.15810000      -1.26630000
H       -0.89530000      -2.35590000      -0.97870000
H       -0.81380000      -2.36910000       0.78260000
H       -3.35910000      -2.41760000       0.84580000
H       -3.36790000      -2.52750000      -0.91810000
H       -2.22530000      -4.42290000       0.80800000
