21
Properties=species:S:1:pos:R:3 gdb_107396=T pbc="F F F"
C        0.19760000       1.57800000       0.14440000
C        0.08020000       0.06770000       0.05240000
C        0.60640000      -0.57160000      -1.25180000
C        1.13340000      -1.93270000      -0.78670000
C        0.65910000      -3.18210000      -1.48160000
O        1.09450000      -3.25650000      -2.83240000
C        2.50000000      -1.91460000      -0.11090000
C        1.24110000      -1.81200000       0.70880000
O        0.85990000      -0.52480000       1.10840000
H        1.23800000       1.88990000       0.00920000
H       -0.41330000       2.05520000      -0.62830000
H       -0.14400000       1.93350000       1.12040000
H       -0.97220000      -0.22900000       0.19380000
H       -0.18410000      -0.68500000      -1.99850000
H        1.39420000       0.04500000      -1.69870000
H        0.97580000      -4.06930000      -0.90930000
H       -0.43600000      -3.20020000      -1.52960000
H        2.05350000      -3.16560000      -2.82740000
H        3.05300000      -2.84930000      -0.06760000
H        3.10970000      -1.02130000      -0.19570000
H        0.95560000      -2.60710000       1.39210000
