16
Properties=species:S:1:pos:R:3 gdb_34922=T pbc="F F F"
N       -0.22890000      -1.16540000      -0.39690000
C       -0.10980000      -0.03740000      -0.17730000
C        0.01590000       1.39950000       0.05990000
C       -0.61150000       1.87710000       1.38550000
N       -0.00880000       1.31610000       2.59630000
C        0.40590000       2.65570000       2.14380000
C        1.69120000       2.67620000       1.33910000
N        2.30980000       1.35300000       1.14460000
C        1.47110000       1.91020000       0.08160000
H       -0.50370000       1.91560000      -0.75690000
H       -1.66660000       2.13050000       1.37990000
H       -0.66570000       1.39900000       3.36840000
H        0.13940000       3.52960000       2.72790000
H        2.31290000       3.56420000       1.36700000
H        3.28910000       1.46200000       0.89240000
H        1.92080000       2.18760000      -0.86620000
