27
Properties=species:S:1:pos:R:3 gdb_122000=T pbc="F F F"
C        0.15920000       1.63340000      -0.01700000
C        0.01320000       0.10850000      -0.00610000
C        0.63030000      -0.55290000      -1.24440000
C        0.60650000      -2.09410000      -1.25470000
C       -0.82730000      -2.64710000      -1.28160000
C        1.44900000      -2.61710000      -2.43260000
C        1.66180000      -4.12630000      -2.44970000
O        2.56570000      -4.43280000      -3.49160000
C        2.80820000      -5.81150000      -3.61720000
H        1.21330000       1.93070000      -0.05020000
H       -0.33330000       2.07150000      -0.89240000
H       -0.28620000       2.08450000       0.87530000
H        0.49010000      -0.29780000       0.89620000
H       -1.04980000      -0.14820000       0.06970000
H        0.12250000      -0.18060000      -2.14630000
H        1.67410000      -0.22160000      -1.33070000
H        1.08410000      -2.43720000      -0.32390000
H       -1.41610000      -2.28220000      -0.43550000
H       -1.34270000      -2.34510000      -2.20170000
H       -0.84320000      -3.73990000      -1.23630000
H        0.98830000      -2.31600000      -3.38260000
H        2.43970000      -2.14810000      -2.40720000
H        2.06690000      -4.46780000      -1.47980000
H        0.71280000      -4.66460000      -2.60730000
H        3.25160000      -6.23620000      -2.70180000
H        1.88560000      -6.37240000      -3.83890000
H        3.51020000      -5.94850000      -4.44380000
