23
Properties=species:S:1:pos:R:3 gdb_118413=T pbc="F F F"
C       -0.79640000       1.57080000      -0.95200000
C       -0.95390000       0.07960000      -1.19560000
O       -1.33110000      -0.53170000       0.02540000
C       -1.49000000      -1.94190000      -0.04620000
C       -1.62890000      -2.45720000       1.39460000
C       -0.39360000      -2.16910000       2.24960000
C       -2.64060000      -2.33120000      -0.87380000
C       -3.59300000      -2.65230000      -1.53810000
C       -4.74360000      -3.04190000      -2.34070000
H       -0.49910000       2.07770000      -1.87510000
H       -1.73920000       2.00420000      -0.60630000
H       -0.03380000       1.75970000      -0.19080000
H       -1.71520000      -0.11100000      -1.96650000
H       -0.00730000      -0.35710000      -1.55720000
H       -0.57770000      -2.38170000      -0.48930000
H       -2.51680000      -1.98850000       1.83260000
H       -1.82570000      -3.53360000       1.34980000
H       -0.19250000      -1.09610000       2.28740000
H       -0.53570000      -2.53030000       3.27260000
H        0.49490000      -2.66500000       1.84210000
H       -5.20830000      -3.95370000      -1.94950000
H       -5.50820000      -2.25730000      -2.34280000
H       -4.46100000      -3.23360000      -3.38170000
