16
Properties=species:S:1:pos:R:3 gdb_51375=T pbc="F F F"
O       -0.33300000       0.05370000      -0.06520000
C       -0.16110000       1.23350000      -0.06750000
O        1.06920000       1.78900000      -0.02150000
C        1.15820000       3.20360000      -0.04690000
C        2.16850000       4.02150000       0.67370000
C        3.62790000       3.57910000       0.47170000
C        3.84370000       2.37900000      -0.36330000
N        3.53780000       3.67310000      -1.02420000
C        2.08240000       4.03770000      -0.87330000
H       -0.97060000       1.98790000      -0.10310000
H        0.17080000       3.66420000      -0.00340000
H        1.89060000       4.77850000       1.39640000
H        4.43230000       4.08110000       0.99860000
H        4.88120000       2.10170000      -0.53000000
H        3.13760000       1.56300000      -0.38650000
H        1.70960000       4.78960000      -1.55930000
