13
Properties=species:S:1:pos:R:3 gdb_19817=T pbc="F F F"
O       -0.08160000       0.05740000       0.09660000
C        0.01170000       1.23870000       0.07620000
O       -1.01670000       2.16680000       0.07380000
C       -0.08280000       3.27990000      -0.00010000
C        0.41870000       3.84450000       1.35590000
N        0.50760000       2.70300000       2.29130000
C        1.59260000       2.92180000       1.31910000
C        1.11340000       2.31380000      -0.02710000
H       -0.32920000       3.98420000      -0.79140000
H        0.32580000       4.86090000       1.71560000
H        0.81100000       3.07100000       3.19160000
H        2.61810000       3.07190000       1.62800000
H        1.82360000       2.25170000      -0.84760000
