13
Properties=species:S:1:pos:R:3 gdb_133312=T pbc="F F F"
N        0.02360000       1.40180000       0.16360000
C        0.00190000       0.02870000       0.06050000
C       -1.16390000      -0.68480000       0.03560000
F       -2.33150000      -0.03730000       0.05120000
C       -1.19850000      -2.12610000      -0.01240000
O       -2.18150000      -2.84410000      -0.03940000
N        0.10080000      -2.66430000      -0.03480000
N        1.27110000      -2.02260000      -0.01900000
C        1.22440000      -0.72490000       0.02910000
H        0.83870000       1.87060000      -0.19940000
H       -0.84530000       1.86760000      -0.04990000
H        0.15740000      -3.67350000      -0.07090000
H        2.18040000      -0.21220000       0.04980000
