17
Properties=species:S:1:pos:R:3 gdb_92037=T pbc="F F F"
O       -0.00030000       1.42750000       0.00920000
C        0.03960000       0.00790000      -0.03830000
C        0.86710000      -0.56630000       1.12870000
C        0.82360000      -2.08610000       1.20820000
O       -0.02700000      -2.65790000       2.21120000
C       -0.42390000      -2.77930000       0.84970000
C       -1.59820000      -1.95530000       0.38290000
O       -1.97000000      -0.83550000       1.18460000
C       -1.35780000      -0.57910000      -0.08610000
H       -0.45610000       1.67440000       0.82260000
H        0.53100000      -0.22400000      -0.99230000
H        1.89620000      -0.21180000       1.02930000
H        0.46550000      -0.16910000       2.06630000
H        1.76670000      -2.61620000       1.08260000
H       -0.38820000      -3.79180000       0.44720000
H       -2.43960000      -2.51350000      -0.02600000
H       -2.01940000      -0.14220000      -0.83380000
