20
Properties=species:S:1:pos:R:3 gdb_65527=T pbc="F F F"
O        0.07660000       1.43410000       0.13350000
C        0.07820000       0.01810000       0.07940000
C        0.15060000      -0.74660000       1.43890000
N       -1.19180000      -1.39010000       1.21280000
C       -2.14760000      -0.27160000       1.13720000
C       -1.33080000      -0.55530000      -0.05580000
C        1.02880000      -0.52240000      -0.97180000
C        1.19210000       0.18630000      -2.29010000
C        2.33000000       0.16740000      -1.29790000
H        0.93110000       1.71930000       0.47480000
H        0.93650000      -1.50350000       1.48330000
H        0.19160000      -0.11830000       2.33520000
H       -3.18200000      -0.60090000       1.11880000
H       -1.95900000       0.63080000       1.71300000
H       -1.74010000      -0.96930000      -0.97170000
H        1.04950000      -1.60830000      -1.00400000
H        1.27860000      -0.40920000      -3.19180000
H        0.66450000       1.12580000      -2.40760000
H        2.57000000       1.10280000      -0.80210000
H        3.19570000      -0.45150000      -1.50520000
