23
Properties=species:S:1:pos:R:3 gdb_72483=T pbc="F F F"
C       -0.08080000       1.50840000       0.01360000
C        0.02310000      -0.01410000      -0.00490000
C        0.82570000      -0.57750000      -1.20990000
C        1.42130000      -1.93080000      -0.71850000
C        0.90930000      -2.08090000       0.73550000
C        0.78750000      -0.61760000       1.19330000
C       -0.49440000      -2.70400000       0.74740000
O       -1.36130000      -2.04940000      -0.16700000
C       -1.38770000      -0.64120000       0.00270000
H        0.91280000       1.96560000       0.07160000
H       -0.56970000       1.88690000      -0.89160000
H       -0.65990000       1.86130000       0.87480000
H        0.18880000      -0.70370000      -2.09000000
H        1.62150000       0.12290000      -1.48450000
H        1.11140000      -2.77050000      -1.34630000
H        2.51510000      -1.90140000      -0.73190000
H        1.57510000      -2.68160000       1.36320000
H        1.77350000      -0.14990000       1.30400000
H        0.25260000      -0.50210000       2.14290000
H       -0.46650000      -3.75150000       0.43000000
H       -0.91200000      -2.66910000       1.76870000
H       -1.90110000      -0.37580000       0.94390000
H       -1.98850000      -0.25460000      -0.82780000
