21
Properties=species:S:1:pos:R:3 gdb_114258=T pbc="F F F"
O        0.02880000       1.36620000      -0.08990000
C        0.05560000      -0.04630000       0.06060000
C       -1.37310000      -0.54500000       0.03730000
C       -2.15940000      -0.46490000      -1.30110000
C       -2.74420000      -1.85980000      -0.99140000
C       -4.22350000      -2.02170000      -0.57460000
C       -4.29620000      -3.01420000      -1.75000000
O       -2.90410000      -2.80470000      -2.06410000
C       -1.60890000      -2.08130000       0.03350000
H        0.93580000       1.68510000      -0.10790000
H        0.62250000      -0.52410000      -0.75610000
H        0.53790000      -0.33870000       1.00860000
H       -1.93060000      -0.06090000       0.84530000
H       -2.85640000       0.36290000      -1.45030000
H       -1.48490000      -0.52330000      -2.16160000
H       -4.38260000      -2.45430000       0.41530000
H       -4.83580000      -1.12380000      -0.67820000
H       -4.50330000      -4.05780000      -1.48420000
H       -4.95080000      -2.72400000      -2.58050000
H       -0.77890000      -2.61400000      -0.44300000
H       -1.85730000      -2.57760000       0.97550000
