19
Properties=species:S:1:pos:R:3 gdb_86245=T pbc="F F F"
C        0.96020000       1.43640000      -0.26090000
C        0.09890000       0.23570000       0.12050000
C        0.01710000      -0.85840000      -0.95970000
C        1.17100000      -1.80180000      -0.61270000
O        2.34770000      -1.31400000      -1.24150000
C        1.21950000      -1.67240000       0.92820000
O        0.65160000      -0.42340000       1.27930000
C        0.46340000      -2.79250000       1.63800000
O        0.59900000      -3.96080000       1.38060000
H        1.94620000       1.10750000      -0.59680000
H        0.48640000       2.00370000      -1.06940000
H        1.07890000       2.10030000       0.59990000
H       -0.90140000       0.58070000       0.40670000
H       -0.93000000      -1.40150000      -0.88380000
H        0.11570000      -0.47120000      -1.97510000
H        0.97710000      -2.84100000      -0.90000000
H        3.07010000      -1.91690000      -1.03840000
H        2.26390000      -1.71720000       1.27330000
H       -0.23300000      -2.42710000       2.42510000
