18
Properties=species:S:1:pos:R:3 gdb_31685=T pbc="F F F"
C        0.09220000       1.53990000      -0.21070000
C       -0.00440000       0.04490000       0.13850000
C       -1.40840000      -0.48370000       0.09820000
C       -2.15630000      -0.91010000       1.15700000
N       -3.40740000      -1.30600000       0.68770000
C       -4.44070000      -1.80340000       1.46940000
O       -5.51420000      -2.14060000       1.04250000
C       -3.44570000      -1.12550000      -0.68900000
C       -2.23940000      -0.62460000      -1.07460000
H        1.13190000       1.88090000      -0.18260000
H       -0.29990000       1.73800000      -1.21320000
H       -0.48560000       2.14350000       0.49590000
H        0.62160000      -0.52580000      -0.55960000
H        0.41710000      -0.12500000       1.13560000
H       -1.92250000      -0.97640000       2.20800000
H       -4.15600000      -1.85210000       2.53610000
H       -4.33840000      -1.38310000      -1.23290000
H       -1.95490000      -0.38020000      -2.08770000
