20
Properties=species:S:1:pos:R:3 gdb_96319=T pbc="F F F"
C        0.11940000       1.54680000       0.03760000
C       -0.01560000       0.02060000       0.00440000
C        0.52170000      -0.52890000      -1.31990000
O        0.18300000      -1.89150000      -1.52910000
C        0.89800000      -2.76830000      -0.73200000
O        0.48910000      -2.82490000       0.62860000
C        0.75330000      -1.75220000       1.45230000
C        1.21590000      -2.23690000       2.79770000
N        0.60160000      -0.52120000       1.21180000
H        1.17100000       1.84310000      -0.04080000
H       -0.43520000       2.01350000      -0.78270000
H       -0.26350000       1.93270000       0.98470000
H       -1.08390000      -0.24240000       0.03520000
H        0.07520000       0.01980000      -2.15390000
H        1.61530000      -0.39850000      -1.36410000
H        0.71870000      -3.77320000      -1.11790000
H        1.97370000      -2.52640000      -0.75970000
H        0.48290000      -2.94070000       3.20630000
H        2.16110000      -2.78230000       2.70430000
H        1.33840000      -1.39590000       3.47860000
