21
Properties=species:S:1:pos:R:3 gdb_117221=T pbc="F F F"
C        0.22150000       1.61130000      -0.61920000
C        0.07740000       0.22780000       0.01910000
C       -1.29080000      -0.40180000      -0.23880000
C       -1.44930000      -1.79570000       0.34880000
O       -0.53600000      -2.39680000       0.86770000
C       -2.84000000      -2.37050000       0.24800000
O       -2.98690000      -3.78200000       0.36460000
C       -3.52060000      -2.99330000       1.41720000
C       -2.90290000      -3.13700000       2.78230000
H        1.20880000       2.03730000      -0.41670000
H        0.09730000       1.56390000      -1.70700000
H       -0.52780000       2.31130000      -0.23250000
H        0.85250000      -0.44760000      -0.35710000
H        0.24220000       0.29220000       1.10040000
H       -2.10210000       0.23090000       0.15150000
H       -1.49000000      -0.47550000      -1.31890000
H       -3.47470000      -1.90750000      -0.50950000
H       -4.61130000      -2.92620000       1.40340000
H       -1.81510000      -3.16150000       2.71550000
H       -3.21240000      -2.30850000       3.42850000
H       -3.24900000      -4.06750000       3.24430000
