17
Properties=species:S:1:pos:R:3 gdb_47751=T pbc="F F F"
N       -0.02150000       1.32900000      -0.24530000
C        0.05300000       0.09030000       0.04260000
N        1.20560000      -0.66160000       0.18010000
C        1.24340000      -1.91420000       0.92880000
C       -0.05370000      -2.66860000       0.68350000
O       -1.15460000      -1.84030000       1.00050000
C       -1.24740000      -0.73190000       0.10600000
C       -2.40520000       0.06420000       0.48790000
C       -3.39220000       0.67220000       0.79570000
H        0.90710000       1.75240000      -0.32040000
H        2.05130000      -0.10930000       0.21590000
H        2.09810000      -2.50910000       0.58780000
H        1.35900000      -1.73900000       2.00880000
H       -0.10760000      -3.00070000      -0.36630000
H       -0.12000000      -3.54540000       1.33220000
H       -1.40530000      -1.11970000      -0.91750000
H       -4.25140000       1.23180000       1.07140000
