18
Properties=species:S:1:pos:R:3 gdb_93425=T pbc="F F F"
C        0.01750000       1.59180000      -0.07190000
C       -0.11170000       0.06860000      -0.02060000
C        0.71460000      -0.60190000      -1.12670000
O        0.26660000      -1.90060000      -1.47230000
C        0.47780000      -2.97600000      -0.64100000
O        0.36050000      -4.07660000      -1.12230000
C        0.80540000      -2.76480000       0.76840000
C        0.69410000      -1.67660000       1.56910000
N        0.33090000      -0.40230000       1.28160000
H        1.06600000       1.90010000      -0.00370000
H       -0.39980000       1.98060000      -1.00400000
H       -0.52920000       2.05780000       0.75500000
H       -1.16190000      -0.21290000      -0.19280000
H        0.61030000      -0.02040000      -2.04610000
H        1.77460000      -0.61060000      -0.84320000
H        1.09580000      -3.68700000       1.25520000
H        0.93850000      -1.81140000       2.61980000
H        0.20750000       0.22490000       2.05830000
