17
Properties=species:S:1:pos:R:3 gdb_98255=T pbc="F F F"
C       -0.01920000       1.27200000       0.55120000
O       -0.11280000      -0.03070000      -0.03820000
C       -1.21610000      -0.72700000       0.29450000
O       -2.07070000      -0.28310000       1.04050000
N       -1.21470000      -1.96090000      -0.31860000
C       -0.09330000      -2.33640000      -1.18960000
C       -2.25640000      -2.93920000      -0.16260000
N       -3.28810000      -2.58040000       0.62990000
O       -2.17360000      -4.00980000      -0.73130000
H        0.91760000       1.68970000       0.18270000
H       -0.86300000       1.89540000       0.24660000
H       -0.00540000       1.20270000       1.64140000
H        0.84530000      -2.33000000      -0.63130000
H       -0.30360000      -3.33770000      -1.55620000
H       -0.00740000      -1.63960000      -2.02610000
H       -3.29600000      -1.68190000       1.09180000
H       -4.01050000      -3.26710000       0.75350000
