25
Properties=species:S:1:pos:R:3 gdb_121137=T pbc="F F F"
C        0.18250000       1.52440000      -0.15440000
C        0.05190000       0.02930000       0.14760000
C       -1.32310000      -0.54230000      -0.22520000
C       -1.44290000      -2.03030000       0.07940000
C       -1.55950000      -2.48210000       1.54890000
O       -2.70990000      -3.29710000       1.26230000
C       -2.79770000      -2.79000000      -0.10430000
C       -4.05090000      -1.93450000      -0.26330000
C       -2.77120000      -3.93750000      -1.10440000
H        1.17230000       1.90280000       0.11920000
H        0.03130000       1.72690000      -1.22060000
H       -0.56160000       2.10700000       0.40000000
H        0.83160000      -0.52460000      -0.39190000
H        0.24040000      -0.14600000       1.21510000
H       -2.10000000       0.01670000       0.31170000
H       -1.50550000      -0.37030000      -1.29490000
H       -0.64130000      -2.56800000      -0.43840000
H       -0.73040000      -3.06900000       1.96090000
H       -1.79690000      -1.67000000       2.25250000
H       -4.09410000      -1.14440000       0.49040000
H       -4.09500000      -1.47130000      -1.25480000
H       -4.93940000      -2.56220000      -0.14090000
H       -3.66480000      -4.56130000      -0.99720000
H       -2.74250000      -3.55640000      -2.13150000
H       -1.89320000      -4.56890000      -0.94270000
