15
Properties=species:S:1:pos:R:3 gdb_60708=T pbc="F F F"
O       -0.38780000       1.24230000       0.18070000
C        0.00300000      -0.08600000      -0.03010000
C        0.92130000      -0.18450000      -1.25540000
O        1.24070000       0.79940000      -1.87040000
C        0.70340000      -0.68300000       1.11150000
C        1.28920000      -1.18350000       2.03770000
C        2.00250000      -1.77280000       3.13770000
C        1.50200000      -1.66760000       4.52380000
O        1.38690000      -2.88680000       3.80420000
H        0.11750000       1.76350000      -0.46480000
H       -0.88290000      -0.70740000      -0.25270000
H        1.27180000      -1.19950000      -1.52090000
H        3.07660000      -1.88470000       2.99520000
H        2.22010000      -1.66540000       5.34270000
H        0.56950000      -1.13780000       4.70660000
