19
Properties=species:S:1:pos:R:3 gdb_83206=T pbc="F F F"
C        0.17830000       1.65950000      -0.17240000
C        0.05400000       0.15080000      -0.12950000
C        0.56690000      -0.79210000      -1.16080000
C        1.62100000      -0.32960000      -2.15940000
C        2.79250000       0.21470000      -1.30850000
C        2.52520000      -0.36400000       0.11660000
C        2.88630000       0.56120000       1.19500000
N        3.18710000       1.29610000       2.03460000
N        1.12380000      -0.81860000       0.21170000
H        0.94380000       2.02720000      -0.85660000
H       -0.77880000       2.07750000      -0.50180000
H        0.39130000       2.06370000       0.82140000
H       -0.86750000      -0.16090000       0.35970000
H       -0.03560000      -1.65170000      -1.44330000
H        1.94150000      -1.18530000      -2.76100000
H        1.24000000       0.42490000      -2.85460000
H        3.76520000      -0.11210000      -1.68270000
H        2.80960000       1.30450000      -1.28630000
H        3.13430000      -1.26490000       0.25660000
