16
Properties=species:S:1:pos:R:3 gdb_44295=T pbc="F F F"
O       -0.00460000      -0.02330000       0.14640000
C       -0.06140000       1.16730000       0.03530000
C       -1.32570000       2.04810000       0.05310000
C       -0.73030000       3.43380000       0.26980000
C        0.11310000       3.59430000       1.54870000
C        1.33950000       4.04640000       0.77600000
C        1.31320000       2.64950000       1.30030000
N        1.10540000       2.03210000      -0.04350000
C        0.64720000       3.40650000      -0.46480000
H       -1.85100000       1.97360000      -0.90730000
H       -2.00720000       1.69540000       0.83110000
H       -1.36270000       4.29130000       0.04040000
H       -0.20530000       3.87220000       2.54470000
H        2.04490000       4.85240000       0.90640000
H        1.88280000       2.16780000       2.08290000
H        0.76790000       3.66290000      -1.51520000
