20
Properties=species:S:1:pos:R:3 gdb_116812=T pbc="F F F"
C       -0.93590000       1.35520000      -0.45160000
C       -0.46410000       0.15330000       0.37360000
N       -0.90780000      -1.17780000      -0.00510000
C       -1.65800000      -1.34850000      -0.99620000
O       -2.02750000      -2.60230000      -1.35710000
C       -3.00530000      -2.71150000      -2.38150000
C       -4.42140000      -2.78560000      -1.78230000
C       -5.43520000      -2.95590000      -2.81340000
C       -6.23860000      -3.09440000      -3.69650000
H       -0.51380000       2.27390000      -0.03330000
H       -0.61140000       1.28720000      -1.49550000
H       -2.02650000       1.45710000      -0.43960000
H        0.63380000       0.13140000       0.38370000
H       -0.75540000       0.29890000       1.42240000
H       -2.05940000      -0.56780000      -1.65600000
H       -2.93440000      -1.87130000      -3.08380000
H       -2.78150000      -3.62990000      -2.92910000
H       -4.45420000      -3.61600000      -1.06750000
H       -4.61650000      -1.87160000      -1.20720000
H       -6.96270000      -3.21880000      -4.46310000
