17
Properties=species:S:1:pos:R:3 gdb_28316=T pbc="F F F"
N        0.21200000       1.39080000      -0.05560000
C        0.05240000      -0.02650000      -0.02600000
C       -1.01570000      -0.88470000       0.13090000
C       -2.45680000      -1.30950000      -0.09790000
C       -1.85120000      -2.74990000      -0.26740000
N       -0.54910000      -2.17090000       0.12550000
C        0.81410000      -2.21140000      -0.10070000
C        1.20200000      -0.88450000      -0.12900000
O        2.46630000      -0.40180000      -0.19650000
H       -0.15690000       1.83570000       0.77810000
H       -0.25010000       1.81590000      -0.85330000
H       -3.14340000      -1.18900000       0.74480000
H       -2.93190000      -0.91610000      -1.00050000
H       -2.21230000      -3.53310000       0.40510000
H       -1.87240000      -3.11090000      -1.30020000
H        1.39600000      -3.11720000      -0.09680000
H        2.35950000       0.56290000      -0.18570000
