15
Properties=species:S:1:pos:R:3 gdb_61387=T pbc="F F F"
O        1.13690000       1.74960000       0.35320000
C        0.27860000       0.76190000      -0.14330000
C        0.73120000       0.34280000      -1.55590000
C       -0.27830000      -0.47200000      -2.32100000
O       -1.28980000      -0.94340000      -1.84950000
C        0.00350000      -0.71870000      -3.81130000
O        0.96930000      -0.28780000      -4.38160000
C        0.23280000      -0.42030000       0.81300000
O        0.89160000      -0.42260000       1.82560000
H        1.47370000       1.40120000       1.19500000
H       -0.75530000       1.14140000      -0.21730000
H        0.96750000       1.24450000      -2.13200000
H        1.67710000      -0.21470000      -1.51840000
H       -0.77910000      -1.33670000      -4.29890000
H       -0.43130000      -1.25780000       0.53590000
