26
Properties=species:S:1:pos:R:3 gdb_101717=T pbc="F F F"
C        0.20810000       1.38350000       0.20090000
C        0.03180000      -0.09030000      -0.17880000
C       -1.40610000      -0.63010000      -0.05100000
C       -2.37190000       0.07610000      -1.01380000
C       -1.40670000      -2.16100000      -0.25830000
C       -2.72990000      -2.85080000       0.01210000
C       -2.78060000      -4.27470000       0.45610000
N       -3.21380000      -3.20860000       1.35110000
C       -2.39970000      -2.94850000       2.52810000
H        1.26350000       1.67160000       0.16320000
H       -0.33560000       2.05180000      -0.47350000
H       -0.15090000       1.57470000       1.21870000
H        0.38160000      -0.24840000      -1.20880000
H        0.68850000      -0.69720000       0.45810000
H       -1.74490000      -0.43050000       0.97590000
H       -2.07620000      -0.09630000      -2.05620000
H       -3.39760000      -0.28350000      -0.89430000
H       -2.38810000       1.15660000      -0.84700000
H       -1.12180000      -2.37630000      -1.29850000
H       -0.62070000      -2.60600000       0.36160000
H       -3.54220000      -2.51450000      -0.63070000
H       -3.55430000      -4.95040000       0.09900000
H       -1.82440000      -4.75540000       0.66580000
H       -1.31850000      -3.10680000       2.39150000
H       -2.55640000      -1.91710000       2.86110000
H       -2.73180000      -3.61420000       3.33180000
