18
Properties=species:S:1:pos:R:3 gdb_126921=T pbc="F F F"
C       -0.10420000       1.58020000      -0.07290000
C       -0.03960000       0.06240000       0.05470000
N       -1.37360000      -0.51970000      -0.05700000
C       -1.48280000      -1.89900000       0.01550000
C       -0.52670000      -2.90000000      -0.00250000
C       -1.29200000      -4.09070000       0.01890000
O       -0.77360000      -5.33740000       0.02300000
N       -2.59370000      -3.88400000       0.05270000
N       -2.69440000      -2.51110000       0.07760000
H        0.89850000       2.01160000      -0.01100000
H       -0.55100000       1.87250000      -1.02750000
H       -0.70310000       2.02020000       0.73310000
H        0.57090000      -0.35520000      -0.75340000
H        0.45110000      -0.21900000       1.00080000
H       -2.05520000      -0.03710000       0.51530000
H        0.54430000      -2.80200000       0.00090000
H       -1.52160000      -5.94750000       0.05100000
H       -3.58960000      -2.09290000      -0.10400000
