16
Properties=species:S:1:pos:R:3 gdb_127021=T pbc="F F F"
C        0.02930000       1.49780000       0.09240000
C       -0.00320000      -0.01460000      -0.01170000
O        0.68220000      -0.53250000       1.14680000
C        0.78300000      -1.85070000       1.27750000
N        1.43430000      -2.25030000       2.38120000
C        1.53190000      -3.56030000       2.50650000
C        0.98940000      -4.42420000       1.54910000
N        0.35800000      -3.95240000       0.48180000
N        0.24790000      -2.63620000       0.33510000
H        1.05890000       1.86560000       0.10920000
H       -0.48170000       1.93680000      -0.76950000
H       -0.47260000       1.83700000       1.00260000
H       -1.02550000      -0.40480000      -0.02680000
H        0.49730000      -0.37640000      -0.91520000
H        2.05080000      -3.94080000       3.38400000
H        1.05920000      -5.50280000       1.63420000
