14
Properties=species:S:1:pos:R:3 gdb_64606=T pbc="F F F"
C       -0.07010000       1.56610000       0.14150000
C        0.06100000       0.05470000      -0.08970000
C       -1.31620000      -0.52030000      -0.47550000
O       -1.92220000      -1.33940000       0.15310000
N        0.97520000      -0.26380000      -1.19720000
C        1.84870000      -1.03480000      -0.69460000
O        1.77460000      -1.35010000       0.63450000
C        0.65390000      -0.66260000       1.12230000
O        0.33320000      -0.68300000       2.26350000
H        0.91760000       2.01580000       0.26940000
H       -0.55060000       2.03620000      -0.72070000
H       -0.66530000       1.75310000       1.03890000
H       -1.69300000      -0.09090000      -1.42800000
H        2.68370000      -1.48280000      -1.21970000
