16
Properties=species:S:1:pos:R:3 gdb_48813=T pbc="F F F"
O       -0.32350000       0.10060000       0.17930000
C       -0.08440000       1.25870000      -0.03440000
C        1.26930000       1.86730000      -0.06740000
C        1.42210000       3.31900000       0.36230000
C        1.54600000       2.95950000      -1.08650000
C        2.90230000       2.90580000      -1.77360000
N        3.84910000       1.93360000      -1.24830000
C        3.48650000       1.10690000      -0.36850000
O        2.28870000       0.96930000       0.26260000
H       -0.88910000       2.00440000      -0.23620000
H        0.53670000       3.84610000       0.70090000
H        2.32920000       3.53700000       0.91610000
H        0.71140000       3.23080000      -1.72700000
H        2.74970000       2.67130000      -2.83400000
H        3.38110000       3.89310000      -1.74970000
H        4.17490000       0.35630000       0.01210000
