19
Properties=species:S:1:pos:R:3 gdb_55805=T pbc="F F F"
N       -1.91860000      -0.42400000       2.04260000
C       -2.61190000       0.00220000       0.95770000
O       -3.49050000       0.84240000       0.98580000
C       -2.17380000      -0.65140000      -0.36210000
N       -1.39910000      -1.87280000      -0.14840000
C       -0.81860000      -2.60040000      -1.35100000
C       -0.70460000      -3.83670000      -0.42220000
C       -2.11200000      -3.22010000      -0.21570000
C       -2.23110000      -3.10380000      -1.76350000
H       -2.10730000      -0.01410000       2.94120000
H       -1.19090000      -1.10880000       1.91070000
H       -3.08060000      -0.74780000      -0.97170000
H       -1.52740000       0.07540000      -0.87030000
H       -0.04550000      -2.14250000      -1.97070000
H       -0.66010000      -4.81370000      -0.90480000
H       -0.01460000      -3.73610000       0.41610000
H       -2.87540000      -3.49830000       0.51230000
H       -2.93080000      -2.37060000      -2.16310000
H       -2.28180000      -4.03800000      -2.32840000
