18
Properties=species:S:1:pos:R:3 gdb_90652=T pbc="F F F"
C       -0.04170000       1.64530000       0.10530000
C        0.02710000       0.13970000      -0.02330000
C       -1.09260000      -0.60110000       0.65850000
O       -2.08140000      -0.08000000       1.10620000
C        0.54770000      -0.62380000      -1.19740000
C        1.75780000       0.03380000      -1.87490000
O        1.62970000       1.26330000      -2.54760000
C        2.39640000       0.10950000      -0.47370000
N        1.26470000      -0.67960000       0.13780000
H        0.52200000       2.16070000      -0.66910000
H       -1.09090000       1.94340000       0.03810000
H        0.31870000       1.95870000       1.09120000
H       -0.92520000      -1.69840000       0.71850000
H        0.02290000      -1.49060000      -1.59210000
H        2.27290000      -0.70560000      -2.50200000
H        1.18080000       1.11320000      -3.38620000
H        3.32950000      -0.44660000      -0.37430000
H        2.52460000       1.11270000      -0.06280000
