16
Properties=species:S:1:pos:R:3 gdb_40399=T pbc="F F F"
C       -0.42030000       1.27240000      -0.51720000
O        0.73680000       1.51050000       0.28430000
C        0.25070000       0.16610000       0.17370000
C       -0.29140000      -0.42570000       1.41690000
O       -1.33640000      -1.39730000       1.33420000
C       -1.53470000      -0.25770000       2.17240000
C       -0.75730000      -0.47340000       3.52110000
N       -0.10960000      -1.80540000       3.46380000
C        0.50000000      -0.65140000       2.76570000
H       -1.35440000       1.66350000      -0.11920000
H       -0.28070000       1.39230000      -1.59020000
H        0.89630000      -0.49220000      -0.40980000
H       -2.41160000       0.35600000       2.00430000
H       -0.94500000       0.04530000       4.45110000
H        0.40090000      -1.91600000       4.34090000
H        1.49800000      -0.29230000       2.97680000
