17
Properties=species:S:1:pos:R:3 gdb_56487=T pbc="F F F"
C       -0.03840000       1.55790000       0.04290000
C       -0.03230000       0.01880000       0.01040000
C       -1.39510000      -0.50460000       0.02190000
C       -2.53110000      -0.89660000       0.01490000
C        0.75130000      -0.52940000      -1.24140000
C        2.11900000      -0.00260000      -1.28920000
C        3.23840000       0.43220000      -1.31830000
C        0.76490000      -1.99430000      -1.27020000
C        0.78230000      -3.19460000      -1.28210000
H        0.98280000       1.94410000       0.06650000
H       -0.54640000       1.96020000      -0.83900000
H       -0.57130000       1.91040000       0.92900000
H        0.49750000      -0.35270000       0.89570000
H       -3.52830000      -1.26140000       0.01910000
H        0.21020000      -0.17070000      -2.12860000
H        4.23060000       0.80950000      -1.35370000
H        0.79240000      -4.25630000      -1.29750000
