16
Properties=species:S:1:pos:R:3 gdb_1533=T pbc="F F F"
C       -0.56010000       0.50460000      -0.40990000
O        0.50530000       0.34010000      -1.32130000
C        1.54430000      -0.46730000      -0.82480000
C        1.17250000      -1.93200000      -0.65270000
N        1.50740000      -2.56310000       0.39520000
O        0.51040000      -2.38520000      -1.74550000
C        0.10110000      -3.74460000      -1.74830000
H       -1.06500000      -0.44650000      -0.18670000
H       -0.21710000       0.94390000       0.53940000
H       -1.27800000       1.18240000      -0.87730000
H        2.35410000      -0.40050000      -1.56010000
H        1.91990000      -0.11330000       0.14440000
H        1.25180000      -3.54960000       0.36600000
H        0.96250000      -4.42230000      -1.70260000
H       -0.57150000      -3.96160000      -0.90960000
H       -0.43000000      -3.89930000      -2.68790000
