19
Properties=species:S:1:pos:R:3 gdb_81550=T pbc="F F F"
O        0.05240000       1.44530000      -0.28560000
C        0.00980000       0.06500000      -0.06410000
C        0.06670000      -0.53010000       1.38000000
C       -1.42610000      -0.09830000       1.54920000
C       -1.34770000      -0.69110000       0.10490000
C       -0.49640000      -1.82050000       0.73530000
C        0.30260000      -2.90180000      -0.01430000
C       -0.43010000      -3.87950000       0.92250000
O       -1.13620000      -2.79870000       1.56860000
H       -0.54800000       1.88420000       0.32530000
H        0.70860000      -0.36660000      -0.78480000
H        0.87470000      -0.45080000       2.10850000
H       -2.01320000      -0.66360000       2.27190000
H       -1.63580000       0.97080000       1.64680000
H       -2.15420000      -0.79550000      -0.62200000
H        0.06850000      -3.00360000      -1.07570000
H        1.38590000      -2.85320000       0.11130000
H       -1.11880000      -4.58070000       0.43750000
H        0.20260000      -4.42940000       1.62870000
