18
Properties=species:S:1:pos:R:3 gdb_90074=T pbc="F F F"
O        0.31870000       1.34180000      -0.30500000
C        0.09590000      -0.00090000      -0.03510000
C        0.16680000      -0.45700000       1.50710000
C       -1.36680000      -0.43890000       1.46380000
C       -2.83030000      -0.97080000       1.55000000
C       -2.74910000       0.08200000       0.35890000
N       -1.91110000       0.98370000       1.22100000
C       -1.39840000      -0.59160000      -0.05550000
O       -1.44180000      -1.90040000      -0.55320000
H       -0.37960000       1.79820000       0.19540000
H        0.74910000      -0.58750000      -0.68660000
H        0.57990000      -1.46380000       1.60000000
H        0.66590000       0.22500000       2.19920000
H       -2.99040000      -2.01790000       1.29100000
H       -3.43820000      -0.65750000       2.40550000
H       -3.58110000       0.46840000      -0.23870000
H       -2.44200000       1.27080000       2.04580000
H       -1.36500000      -1.85070000      -1.51160000
