16
Properties=species:S:1:pos:R:3 gdb_36115=T pbc="F F F"
N       -0.30190000      -1.13860000       0.31410000
C       -0.15890000      -0.00740000       0.12920000
C        0.03850000       1.42460000      -0.09710000
C        1.48760000       1.82190000      -0.02760000
O        1.84990000       3.06920000      -0.62740000
C        2.55930000       1.87320000      -1.01430000
C        3.62370000       1.53050000       0.07350000
C        3.58990000       2.51570000       1.21100000
C        2.50730000       1.47510000       1.11000000
H       -0.36110000       1.69890000      -1.07880000
H       -0.53850000       1.98070000       0.65320000
H        2.58690000       1.63140000      -2.06980000
H        4.42380000       0.82050000      -0.08320000
H        4.32110000       2.32880000       1.99080000
H        3.36730000       3.55860000       1.02560000
H        2.32700000       0.71360000       1.85640000
