14
Properties=species:S:1:pos:R:3 gdb_10114=T pbc="F F F"
O        0.10480000       1.29640000       0.29580000
C       -0.04630000      -0.08480000       0.03670000
C       -1.53820000      -0.46700000      -0.07600000
N       -2.24600000      -0.07630000       1.12590000
C       -3.01550000      -0.95620000       1.82930000
O       -3.22070000      -2.10420000       1.50350000
C       -2.10900000       0.18630000      -1.27030000
N       -2.49470000       0.74610000      -2.20500000
H       -0.07850000       1.77810000      -0.51930000
H        0.48700000      -0.40130000      -0.86890000
H        0.37580000      -0.61410000       0.89520000
H       -1.65430000      -1.55150000      -0.17330000
H       -2.06160000       0.84890000       1.48350000
H       -3.43410000      -0.49560000       2.74330000
