14
Properties=species:S:1:pos:R:3 gdb_2917=T pbc="F F F"
C        0.00110000       1.42170000       0.00920000
N        0.03480000      -0.03180000       0.00470000
C       -1.07330000      -0.64440000       0.01080000
C       -1.29610000      -2.15360000       0.00790000
N       -2.75280000      -2.36400000       0.01820000
C       -3.26920000      -1.19810000       0.02540000
N       -2.37740000      -0.13340000       0.02150000
H        1.02190000       1.81120000       0.00110000
H       -0.51560000       1.83170000      -0.87350000
H       -0.49940000       1.82640000       0.90350000
H       -0.84930000      -2.61950000      -0.87700000
H       -0.83590000      -2.62500000       0.88290000
H       -4.33680000      -1.00090000       0.03400000
H       -2.62410000       0.84050000       0.02770000
