20
Properties=species:S:1:pos:R:3 gdb_93110=T pbc="F F F"
O        0.05390000       1.41380000      -0.07180000
C       -0.00470000      -0.00780000      -0.01630000
C        0.71660000      -0.54870000       1.22730000
C       -0.09790000      -0.30370000       2.47510000
C       -1.41450000      -0.08880000       2.45430000
C       -2.24170000      -0.07420000       1.19370000
C       -1.44390000      -0.50380000      -0.02720000
C       -2.11620000      -0.73610000      -1.32280000
N       -1.69130000      -1.88370000      -0.49140000
H       -0.16630000       1.74300000       0.80730000
H        0.50350000      -0.35300000      -0.92490000
H        0.91020000      -1.62440000       1.10980000
H        1.69830000      -0.06700000       1.30450000
H        0.43260000      -0.31000000       3.42380000
H       -1.94600000       0.09180000       3.38570000
H       -3.10510000      -0.74070000       1.30170000
H       -2.65330000       0.93370000       1.03500000
H       -3.19280000      -0.61190000      -1.40570000
H       -1.56490000      -0.51390000      -2.23310000
H       -0.83510000      -2.28110000      -0.87480000
