17
Properties=species:S:1:pos:R:3 gdb_89207=T pbc="F F F"
C       -0.56730000       1.32900000      -0.12340000
C        0.09000000      -0.02330000       0.03060000
O        1.30310000      -0.18010000      -0.77000000
C        2.06770000      -0.63460000       0.37450000
C        2.86610000      -1.88170000       0.14010000
C        0.87160000      -0.35790000       1.31130000
O        1.56170000       0.79300000       1.87740000
C        2.68740000       0.58510000       1.09500000
O        3.69030000       1.21740000       1.08570000
H        0.09690000       2.12770000       0.21270000
H       -0.82020000       1.49920000      -1.17390000
H       -1.49160000       1.36990000       0.46230000
H       -0.60710000      -0.83480000      -0.21860000
H        3.63730000      -1.68280000      -0.61060000
H        3.36160000      -2.20760000       1.05940000
H        2.22480000      -2.68680000      -0.22820000
H        0.46350000      -1.00740000       2.08200000
