18
Properties=species:S:1:pos:R:3 gdb_104136=T pbc="F F F"
C        0.12410000       1.35940000      -0.03790000
O        0.16430000      -0.05980000       0.03940000
C        0.66320000      -0.60960000       1.22880000
C       -0.16390000      -0.25760000       2.45750000
C        0.81060000      -2.12630000       0.95520000
N        2.20880000      -2.20090000       0.60310000
C        2.91330000      -1.09440000       0.99640000
O        4.09790000      -0.91400000       0.97780000
O        2.01000000      -0.16040000       1.45160000
H        1.08920000       1.80080000       0.23010000
H       -0.10500000       1.59940000      -1.07790000
H       -0.66090000       1.78390000       0.60090000
H       -1.20150000      -0.56910000       2.30720000
H        0.23790000      -0.76240000       3.33860000
H       -0.14200000       0.81740000       2.64720000
H        0.56420000      -2.72150000       1.84370000
H        0.15180000      -2.41390000       0.13280000
H        2.70270000      -3.05800000       0.42550000
