15
Properties=species:S:1:pos:R:3 gdb_98913=T pbc="F F F"
C       -0.12760000       1.33160000       0.22440000
O        0.01370000      -0.07840000      -0.00300000
C        0.65610000      -0.41510000      -1.13750000
O        1.09580000       0.37010000      -1.93100000
C        0.72490000      -1.94080000      -1.23400000
C        1.39920000      -2.42840000      -2.42110000
C        1.95570000      -2.86700000      -3.40010000
C        2.58360000      -3.35320000      -4.50500000
C        3.14010000      -3.78790000      -5.48420000
H        0.85260000       1.81060000       0.28440000
H       -0.69760000       1.79520000      -0.58440000
H       -0.65920000       1.42630000       1.17100000
H        1.21720000      -2.30890000      -0.32470000
H       -0.30270000      -2.32310000      -1.18220000
H        3.63020000      -4.16600000      -6.34670000
