14
Properties=species:S:1:pos:R:3 gdb_12191=T pbc="F F F"
O        0.24930000       1.41200000       0.24370000
C        0.11430000       0.03930000       0.06680000
C       -1.28790000      -0.66570000       0.06180000
C       -0.79470000      -1.62740000      -1.07760000
C       -1.68330000      -1.99380000      -2.15260000
C       -2.42120000      -2.27190000      -3.05970000
C        0.29370000      -0.54270000      -1.34120000
O        0.80240000      -0.10430000      -2.32890000
H        0.15890000       1.83350000      -0.61940000
H        0.77090000      -0.46910000       0.78390000
H       -1.60400000      -1.13490000       0.99260000
H       -2.06500000       0.00670000      -0.30610000
H       -0.31850000      -2.51230000      -0.63850000
H       -3.07090000      -2.52230000      -3.86150000
