13
Properties=species:S:1:pos:R:3 gdb_10003=T pbc="F F F"
O        0.10160000      -0.13660000       0.24070000
C        0.08450000       0.95810000      -0.24940000
C        1.23900000       1.95250000      -0.11250000
N        1.27760000       2.94270000      -1.18140000
C        0.88510000       4.26560000      -0.90510000
O        0.84090000       5.17010000      -1.68640000
C        1.72860000       2.51600000      -2.44490000
O        1.81380000       3.18640000      -3.43220000
H       -0.78350000       1.34020000      -0.83300000
H        1.10730000       2.47590000       0.84140000
H        2.17880000       1.39770000      -0.04050000
H        0.61530000       4.37080000       0.16540000
H        2.01020000       1.44400000      -2.41000000
