19
Properties=species:S:1:pos:R:3 gdb_86646=T pbc="F F F"
C       -0.15900000       1.52720000      -0.04970000
C        0.11600000       0.03110000       0.06070000
C        0.82890000      -0.56790000      -1.16610000
N        1.45860000      -1.78230000      -0.63700000
C        1.84400000      -2.82620000      -1.43480000
O        2.38340000      -3.84410000      -1.05610000
C        1.61510000      -1.72250000       0.78020000
N        2.11520000      -2.58840000       1.55250000
C        1.05000000      -0.38410000       1.21160000
H        0.77280000       2.09150000      -0.16960000
H       -0.80180000       1.75360000      -0.90690000
H       -0.66080000       1.89910000       0.84860000
H       -0.83480000      -0.50260000       0.18410000
H        0.14680000      -0.80840000      -1.98640000
H        1.58930000       0.12760000      -1.54800000
H        1.59870000      -2.64280000      -2.49930000
H        2.43960000      -3.39780000       1.02160000
H        1.87480000       0.33450000       1.31100000
H        0.56320000      -0.46150000       2.18440000
