16
Properties=species:S:1:pos:R:3 gdb_64972=T pbc="F F F"
C       -0.09570000       1.54420000      -0.72240000
C       -0.08720000       0.21610000      -0.00560000
C        0.88460000      -0.83820000      -0.37350000
O        1.05140000      -0.07980000       0.81800000
C       -1.41480000      -0.22350000       0.57110000
O       -2.45740000       0.13210000       0.08570000
C       -1.34080000      -1.10190000       1.83270000
C       -2.63690000      -1.63760000       2.22660000
N       -3.65190000      -2.07940000       2.55370000
H        0.88800000       1.75060000      -1.14910000
H       -0.84470000       1.53290000      -1.51720000
H       -0.35340000       2.35190000      -0.03100000
H        0.64360000      -1.89160000      -0.23790000
H        1.59070000      -0.62380000      -1.17390000
H       -0.62250000      -1.91650000       1.69810000
H       -0.92540000      -0.48730000       2.64080000
