16
Properties=species:S:1:pos:R:3 gdb_124318=T pbc="F F F"
C       -0.06130000       1.49080000       0.01300000
C        0.09150000      -0.01710000      -0.00120000
O        1.15570000      -0.57760000      -0.01670000
C       -1.23440000      -0.79990000       0.00580000
N       -1.03960000      -2.22530000      -0.00200000
N       -0.89460000      -2.90840000      -1.13270000
C       -0.63120000      -4.14650000      -0.71400000
C       -0.62060000      -4.15220000       0.68810000
N       -0.87740000      -2.91760000       1.12070000
H        0.92300000       1.95920000       0.00510000
H       -0.63590000       1.82560000      -0.85810000
H       -0.61460000       1.81050000       0.90330000
H       -1.80930000      -0.53580000       0.89780000
H       -1.82310000      -0.52780000      -0.87480000
H       -0.47400000      -4.94890000      -1.41660000
H       -0.45260000      -4.96030000       1.38160000
