16
Properties=species:S:1:pos:R:3 gdb_48674=T pbc="F F F"
O       -0.90340000       1.27790000       0.03700000
C        0.23430000       0.87560000       0.03040000
C        1.43280000       1.76070000       0.04710000
C        1.27790000       3.20930000       0.43220000
C        1.54910000       2.85530000      -1.01350000
C        2.97840000       2.83070000      -1.45960000
O        3.44160000       3.39390000      -2.41630000
C        3.74620000       1.89310000      -0.51550000
N        2.72310000       1.11700000       0.19570000
H        0.48430000      -0.20630000      -0.00470000
H        0.26980000       3.54710000       0.64390000
H        2.06690000       3.66490000       1.02110000
H        0.77070000       3.02400000      -1.74640000
H        4.41310000       1.25310000      -1.10240000
H        4.38100000       2.50380000       0.14360000
H        2.96110000       0.98640000       1.17200000
