20
Properties=species:S:1:pos:R:3 gdb_100436=T pbc="F F F"
C        0.05950000       1.41020000       0.01130000
O        0.02360000      -0.01630000      -0.00480000
C        0.53770000      -0.62060000      -1.09820000
C        0.43590000      -2.12320000      -0.96150000
N        1.01910000       0.07060000      -2.04650000
C        1.56480000      -0.57040000      -3.22370000
C        0.78810000      -0.12200000      -4.47760000
C        1.47320000      -0.55580000      -5.75050000
O        0.96640000      -1.21160000      -6.62410000
H        1.08860000       1.77490000      -0.05210000
H       -0.50290000       1.82400000      -0.83040000
H       -0.39450000       1.70500000       0.95840000
H       -0.08940000      -2.37420000      -0.04030000
H       -0.10450000      -2.55800000      -1.80690000
H        1.43010000      -2.57890000      -0.93450000
H        2.61170000      -0.25340000      -3.33060000
H        1.57130000      -1.66910000      -3.17710000
H       -0.23570000      -0.50550000      -4.47060000
H        0.74560000       0.97570000      -4.46720000
H        2.53370000      -0.21660000      -5.83510000
