20
Properties=species:S:1:pos:R:3 gdb_62808=T pbc="F F F"
C       -0.13620000       1.53590000       0.03930000
C       -0.02050000       0.00900000      -0.00390000
C       -1.43310000      -0.54690000      -0.20930000
C        1.18130000      -0.64530000      -0.79110000
C        2.15010000      -0.12050000       0.31110000
C        0.91440000      -0.70140000       1.07030000
C        1.03120000      -1.91760000       0.09650000
C        0.70320000      -0.74020000       2.49550000
N        0.51260000      -0.75800000       3.63660000
H        0.80710000       2.06550000       0.16790000
H       -0.58970000       1.89590000      -0.89070000
H       -0.79810000       1.83740000       0.85830000
H       -1.85690000      -0.13950000      -1.13380000
H       -1.49570000      -1.63260000      -0.27330000
H       -2.08360000      -0.22680000       0.61170000
H        1.34580000      -0.61910000      -1.86820000
H        3.07480000      -0.68650000       0.43880000
H        2.33710000       0.94760000       0.38520000
H        0.15810000      -2.55180000      -0.03280000
H        1.93360000      -2.51930000       0.21990000
