9
Properties=species:S:1:pos:R:3 gdb_21758=T pbc="F F F"
O       -0.07920000       1.53340000       0.01090000
N        1.29570000       1.83800000      -0.00070000
C        1.95130000       0.72540000      -0.01270000
C        1.05830000      -0.39420000      -0.01010000
C       -0.30120000       0.16600000       0.00610000
O       -1.38660000      -0.33510000       0.01400000
N        1.57860000      -2.76800000      -0.02830000
N        1.33710000      -1.66580000      -0.01950000
H        3.03200000       0.72220000      -0.02300000
