19
Properties=species:S:1:pos:R:3 gdb_44679=T pbc="F F F"
O        0.05680000       0.00630000       0.08670000
C       -0.00280000       1.19600000      -0.03040000
C       -1.15880000       2.18400000      -0.27330000
C       -0.07150000       3.25720000      -0.63210000
C       -0.14320000       4.61770000      -0.01600000
C        0.76860000       5.07040000       0.84560000
C        1.91750000       4.22660000       1.34230000
C        1.56390000       2.73260000       1.30580000
C        1.05160000       2.31380000      -0.08470000
H       -1.87800000       1.89750000      -1.04440000
H       -1.70390000       2.41210000       0.64840000
H        0.00030000       3.34790000      -1.72160000
H       -0.96680000       5.25760000      -0.32560000
H        0.69250000       6.08520000       1.22760000
H        2.81760000       4.42050000       0.74060000
H        2.17680000       4.51830000       2.36650000
H        2.41990000       2.11230000       1.58710000
H        0.78400000       2.55020000       2.05530000
H        1.88930000       2.12740000      -0.76330000
