18
Properties=species:S:1:pos:R:3 gdb_66839=T pbc="F F F"
C       -0.14280000       1.52870000      -0.04120000
C       -0.02680000       0.04240000       0.04180000
C        0.04220000      -1.04040000      -1.01270000
N        1.17840000      -1.79080000      -0.39880000
C        0.51870000      -2.95670000       0.30550000
C       -0.28600000      -1.92880000       1.12380000
C        0.88360000      -0.92220000       0.84520000
C       -1.04690000      -1.07860000       0.07070000
O       -2.39850000      -0.96790000      -0.16020000
H        0.79070000       1.98510000      -0.38830000
H       -0.93700000       1.81030000      -0.74000000
H       -0.39100000       1.96480000       0.93300000
H       -0.15280000      -0.99910000      -2.07800000
H       -0.01280000      -3.65740000      -0.34770000
H        1.26990000      -3.49220000       0.89330000
H       -0.74530000      -2.10980000       2.09500000
H        1.69860000      -0.67540000       1.52400000
H       -2.68050000      -1.70160000      -0.71860000
