19
Properties=species:S:1:pos:R:3 gdb_84781=T pbc="F F F"
C       -0.20160000       1.48240000       0.06560000
C        0.06800000      -0.02380000       0.04540000
C        0.89960000      -0.52460000      -1.11750000
C        1.73620000      -1.49630000      -0.75650000
C        1.60990000      -1.81640000       0.71530000
C        0.86910000      -0.56580000       1.27780000
O        1.79480000       0.38340000       1.78750000
C       -0.03290000      -0.91020000       2.45310000
O       -1.01290000      -1.60430000       2.36590000
H        0.72540000       2.06060000       0.10270000
H       -0.75060000       1.77860000      -0.83380000
H       -0.80450000       1.76590000       0.93360000
H       -0.89710000      -0.55000000       0.03950000
H        0.77090000      -0.14410000      -2.12520000
H        2.39520000      -2.04430000      -1.42040000
H        1.01480000      -2.72600000       0.86750000
H        2.56300000      -1.95660000       1.23610000
H        2.42880000       0.57800000       1.08850000
H        0.29750000      -0.46560000       3.41670000
