18
Properties=species:S:1:pos:R:3 gdb_89758=T pbc="F F F"
O        0.57850000       0.72330000      -0.78820000
C        0.04590000      -0.28690000       0.02500000
C        0.05440000      -0.11570000       1.58550000
C       -1.38580000      -0.64950000       1.60730000
C       -1.93890000      -1.76290000       2.40740000
N       -2.47220000      -0.38940000       2.54400000
C       -1.47860000      -0.47300000       0.10990000
C       -2.52840000       0.18320000      -0.67230000
O       -2.28560000      -1.23130000      -0.76250000
H        0.12480000       1.54660000      -0.57720000
H        0.53850000      -1.21440000      -0.27900000
H        0.81220000      -0.67300000       2.13940000
H        0.11220000       0.94260000       1.86400000
H       -2.61940000      -2.46760000       1.93850000
H       -1.32750000      -2.16960000       3.20910000
H       -2.10680000       0.04310000       3.38970000
H       -3.45430000       0.46630000      -0.17600000
H       -2.26110000       0.75220000      -1.56170000
