18
Properties=species:S:1:pos:R:3 gdb_14980=T pbc="F F F"
O        0.02550000       1.41170000       0.07380000
C        0.04580000       0.00150000       0.00940000
C       -1.36320000      -0.57650000      -0.02740000
C       -1.40940000      -2.10490000      -0.08860000
C       -2.79170000      -2.59940000       0.25070000
C       -3.69560000      -1.81050000       0.82570000
C       -3.37880000      -0.39460000       1.21940000
O       -1.99410000      -0.10570000       1.16490000
H       -0.59860000       1.62600000       0.77800000
H        0.58550000      -0.27650000      -0.90210000
H        0.58270000      -0.43570000       0.86780000
H       -1.89370000      -0.15960000      -0.89950000
H       -1.12330000      -2.43990000      -1.09380000
H       -0.66910000      -2.53480000       0.60140000
H       -3.03630000      -3.62810000       0.00040000
H       -4.70230000      -2.16100000       1.03640000
H       -3.94670000       0.31130000       0.58550000
H       -3.68720000      -0.20620000       2.25490000
