17
Properties=species:S:1:pos:R:3 gdb_39064=T pbc="F F F"
C        0.13460000       1.48720000       0.07970000
C        1.33600000       0.57500000      -0.10200000
O        2.23680000       0.35190000       0.96440000
C        1.93120000      -0.63710000       1.84810000
N        0.85950000      -1.29180000       2.00210000
C       -0.26730000      -0.96790000       1.16180000
C       -0.66340000      -1.98470000       0.04800000
N       -0.77300000      -0.84900000      -0.91570000
C       -0.03740000       0.00460000       0.00860000
H       -0.00980000       1.97350000       1.04010000
H       -0.13740000       2.08870000      -0.78230000
H        1.86550000       0.60810000      -1.04920000
H        2.79040000      -0.82000000       2.48980000
H       -1.12140000      -0.70940000       1.79560000
H        0.15540000      -2.68330000      -0.15880000
H       -1.59460000      -2.54000000       0.18550000
H       -0.32620000      -1.00460000      -1.81430000
