17
Properties=species:S:1:pos:R:3 gdb_52000=T pbc="F F F"
O       -0.73740000       0.44510000       0.04170000
C       -0.20850000       1.52500000       0.07400000
C        1.26460000       1.77800000      -0.14770000
C        1.50240000       2.79480000      -1.26860000
C        2.92320000       3.33700000      -1.29600000
O        3.73310000       3.09440000      -0.43230000
C        3.28220000       4.25060000      -2.46720000
C        3.88180000       5.56190000      -1.97270000
O        3.57800000       6.63860000      -2.41030000
H       -0.80260000       2.44770000       0.28090000
H        1.68910000       2.18260000       0.78050000
H        1.76430000       0.82890000      -0.35430000
H        1.26950000       2.36970000      -2.25330000
H        0.83260000       3.66310000      -1.16750000
H        4.06750000       3.73550000      -3.03770000
H        2.44340000       4.45760000      -3.13460000
H        4.62990000       5.43710000      -1.16360000
