16
Properties=species:S:1:pos:R:3 gdb_127003=T pbc="F F F"
C        0.01420000       1.45840000      -0.01960000
C        0.00030000      -0.05680000      -0.00770000
O        0.71590000      -0.48250000       1.17320000
C        0.82990000      -1.78280000       1.39010000
C        1.44570000      -2.44610000       2.41160000
C        1.21280000      -3.79940000       2.06350000
O        1.63220000      -4.85780000       2.77350000
N        0.52970000      -3.95710000       0.95160000
O        0.27990000      -2.63140000       0.51210000
H        1.03900000       1.83740000      -0.05270000
H       -0.51940000       1.82290000      -0.90220000
H       -0.47570000       1.85870000       0.87190000
H       -1.01930000      -0.45440000       0.03090000
H        0.49170000      -0.47540000      -0.89230000
H        1.96990000      -2.04220000       3.25800000
H        1.33620000      -5.65270000       2.30900000
