19
Properties=species:S:1:pos:R:3 gdb_103849=T pbc="F F F"
C        0.14190000       1.57550000       0.06450000
C       -0.14580000       0.10260000       0.23340000
C       -1.37330000      -0.41190000      -0.50100000
O       -1.20930000      -0.30450000      -1.90400000
O        0.98220000      -0.79550000       0.05760000
C        0.38270000      -0.70880000       1.34760000
C        1.23030000      -0.21530000       2.48210000
C        2.67790000      -0.47430000       2.51240000
O        2.16290000       0.83380000       2.25500000
H        1.13270000       1.82460000       0.43940000
H        0.06980000       1.83330000      -0.99600000
H       -0.60280000       2.16990000       0.60540000
H       -1.57470000      -1.45100000      -0.20070000
H       -2.25110000       0.19150000      -0.24560000
H       -0.41170000      -0.80100000      -2.12280000
H       -0.19400000      -1.59300000       1.63650000
H        0.69620000      -0.14910000       3.43180000
H        3.18700000      -0.59660000       3.46660000
H        3.13570000      -0.96230000       1.65500000
