20
Properties=species:S:1:pos:R:3 gdb_7135=T pbc="F F F"
C        0.01680000       1.60120000       0.07880000
C       -0.00400000       0.07300000      -0.00200000
C        0.70400000      -0.58950000       1.17970000
C        0.70060000      -2.11180000       1.13130000
O        0.17360000      -2.72500000       0.22850000
C        1.39610000      -2.82440000       2.28040000
C        1.34980000      -4.34070000       2.16600000
O        2.03150000      -4.86730000       3.29580000
H        1.04250000       1.98720000       0.09060000
H       -0.49580000       2.04870000      -0.77820000
H       -0.47990000       1.96050000       0.98730000
H       -1.03650000      -0.28950000      -0.04700000
H        0.46610000      -0.26300000      -0.93240000
H        1.74960000      -0.25580000       1.24870000
H        0.24940000      -0.28140000       2.13270000
H        2.43910000      -2.48570000       2.33380000
H        0.94080000      -2.50710000       3.22780000
H        0.30360000      -4.67570000       2.12830000
H        1.82030000      -4.65370000       1.22330000
H        2.01000000      -5.82660000       3.23520000
