20
Properties=species:S:1:pos:R:3 gdb_103891=T pbc="F F F"
C       -0.16470000       1.47720000       0.36660000
C        0.03180000       0.00500000       0.07030000
C       -1.21450000      -0.71440000      -0.39070000
O       -1.61450000      -0.16510000      -1.64100000
C        1.35590000      -0.45430000      -0.49900000
C        0.98430000      -0.81490000       0.91510000
N        1.69840000      -0.20790000       1.99960000
C        1.12410000       0.00320000       3.21680000
O       -0.04340000      -0.19210000       3.47620000
H        0.77390000       1.95930000       0.64980000
H       -0.56160000       1.98240000      -0.51770000
H       -0.87250000       1.61160000       1.19130000
H       -1.01160000      -1.79350000      -0.48320000
H       -2.00210000      -0.59010000       0.36840000
H       -2.49120000      -0.50150000      -1.84790000
H        1.36890000      -1.24700000      -1.23880000
H        2.12250000       0.30130000      -0.63900000
H        0.68950000      -1.84490000       1.10460000
H        2.69940000      -0.11140000       1.92620000
H        1.85570000       0.38960000       3.95540000
