18
Properties=species:S:1:pos:R:3 gdb_9630=T pbc="F F F"
C        0.18910000       1.29350000       0.22670000
O       -0.24070000       0.03380000      -0.25760000
C        0.56820000      -0.51560000      -1.26090000
C        0.44580000       0.14310000      -2.61820000
C        1.85720000      -1.13510000      -0.82640000
C        0.67080000      -2.03070000      -1.20730000
C       -0.00550000      -2.79260000      -0.12930000
O       -0.47520000      -3.89450000      -0.28010000
H        1.22730000       1.25800000       0.58530000
H        0.10910000       2.08040000      -0.53510000
H       -0.46800000       1.54800000       1.06110000
H        0.80690000       1.17650000      -2.59460000
H        1.03470000      -0.39580000      -3.36510000
H       -0.59970000       0.15140000      -2.94070000
H        2.71290000      -1.13040000      -1.49210000
H        2.09820000      -1.08950000       0.23070000
H        0.71580000      -2.55490000      -2.15570000
H       -0.04510000      -2.27360000       0.85100000
