18
Properties=species:S:1:pos:R:3 gdb_38103=T pbc="F F F"
C       -0.04450000       1.57590000       0.00730000
C        1.50200000       1.44780000       0.02330000
O        1.38580000       0.06080000       0.45280000
C        0.00090000       0.03770000       0.00980000
C       -0.08700000      -0.64750000      -1.34410000
N       -0.64290000       0.10130000      -2.48170000
C        0.80770000      -0.24740000      -2.46210000
C        1.80000000       0.86100000      -2.40720000
C        2.12320000       1.59730000      -1.34110000
H       -0.44120000       1.97180000       0.94370000
H       -0.50270000       2.06240000      -0.85110000
H        2.04120000       2.04030000       0.76810000
H       -0.64130000      -0.46880000       0.73780000
H       -0.31160000      -1.71120000      -1.28700000
H       -1.14130000      -0.52490000      -3.10930000
H        1.09940000      -1.05360000      -3.13310000
H        2.29690000       1.07130000      -3.35230000
H        2.84990000       2.39750000      -1.45820000
