15
Properties=species:S:1:pos:R:3 gdb_129836=T pbc="F F F"
N       -0.06200000       1.34090000      -0.24350000
C       -0.05660000      -0.04160000      -0.07400000
C       -0.97850000      -1.02000000      -0.39870000
C       -0.41810000      -2.21420000       0.11200000
C       -0.98720000      -3.60740000       0.07300000
C       -1.42430000      -4.01450000      -1.26410000
N       -1.78310000      -4.32690000      -2.31700000
N        0.75180000      -2.01210000       0.70160000
N        0.94930000      -0.67290000       0.58300000
H        0.81360000       1.71330000      -0.59080000
H       -0.81760000       1.64580000      -0.84170000
H       -1.89730000      -0.89500000      -0.94790000
H       -0.22450000      -4.30510000       0.43170000
H       -1.84720000      -3.69620000       0.74900000
H        1.76090000      -0.25730000       1.00720000
