14
Properties=species:S:1:pos:R:3 gdb_11150=T pbc="F F F"
O        0.02690000       0.03400000       0.00490000
C       -0.00880000       1.23480000       0.01080000
C       -1.28060000       2.10020000       0.03230000
C       -0.75060000       3.50290000       0.03110000
C        0.59350000       3.55520000       0.01280000
C        1.20880000       2.17100000      -0.00190000
C        1.38780000       4.72620000       0.00690000
C        2.10530000       5.69430000       0.00130000
H       -1.90980000       1.86540000      -0.83650000
H       -1.88540000       1.85780000       0.91620000
H       -1.38860000       4.37790000       0.04370000
H        1.84940000       1.97560000       0.86640000
H        1.82530000       1.98330000      -0.88900000
H        2.72600000       6.55580000      -0.00340000
