23
Properties=species:S:1:pos:R:3 gdb_77513=T pbc="F F F"
C       -0.19470000       1.53940000      -0.01240000
C        0.00430000       0.02900000       0.01230000
C        1.17680000      -0.59760000      -0.85390000
C        1.45230000      -0.19250000      -2.28430000
C        2.12300000      -0.21740000       0.33900000
C        0.86110000      -0.60580000       1.18730000
C        0.69110000      -0.21230000       2.63720000
C        0.74490000      -2.08800000       0.79370000
C        0.94890000      -2.08270000      -0.52550000
H        0.72840000       2.10730000       0.13240000
H       -0.62670000       1.85190000      -0.97000000
H       -0.89580000       1.84500000       0.77260000
H       -0.96070000      -0.46630000      -0.13900000
H        1.56960000       0.89200000      -2.37870000
H        2.37240000      -0.65810000      -2.65570000
H        0.63540000      -0.49810000      -2.94850000
H        3.01940000      -0.82840000       0.47520000
H        2.37990000       0.84520000       0.38300000
H        0.77340000       0.87130000       2.77120000
H       -0.28810000      -0.52180000       3.02100000
H        1.45640000      -0.68220000       3.26560000
H        0.52790000      -2.90740000       1.46620000
H        0.94620000      -2.89650000      -1.23860000
