17
Properties=species:S:1:pos:R:3 gdb_51319=T pbc="F F F"
O        0.37790000       2.52180000      -1.02430000
C        0.06750000       1.76540000      -0.13210000
N        0.89650000       0.87880000       0.50300000
C        2.26410000       0.63190000       0.29620000
N        2.77560000      -0.28370000       1.01470000
C        4.18280000      -0.60730000       0.81070000
C        4.71750000      -0.10840000      -0.52620000
O        4.38440000       1.26110000      -0.68630000
C        2.99140000       1.46220000      -0.74540000
H       -0.95850000       1.70690000       0.27890000
H        0.49680000       0.28590000       1.21920000
H        4.76230000      -0.16990000       1.63440000
H        4.29890000      -1.69520000       0.88920000
H        5.80770000      -0.17530000      -0.57460000
H        4.29800000      -0.70540000      -1.35310000
H        2.58500000       1.22710000      -1.74230000
H        2.80470000       2.52470000      -0.57980000
