19
Properties=species:S:1:pos:R:3 gdb_99057=T pbc="F F F"
C       -0.12130000       1.45430000       0.12340000
C        0.02850000      -0.05080000      -0.08290000
C        0.77920000      -0.39880000      -1.35170000
O        1.22040000       0.39470000      -2.14560000
O        0.89120000      -1.74050000      -1.48060000
C        1.58170000      -2.21770000      -2.66590000
C        3.07700000      -2.35500000      -2.37000000
C        0.96480000      -3.48190000      -3.05000000
C        0.49010000      -4.53150000      -3.38940000
H        0.85550000       1.94100000       0.18200000
H       -0.66440000       1.91150000      -0.70740000
H       -0.66670000       1.65990000       1.04850000
H        0.55680000      -0.52250000       0.75410000
H       -0.94590000      -0.55130000      -0.12840000
H        1.43510000      -1.47190000      -3.45310000
H        3.59580000      -2.74510000      -3.24950000
H        3.49170000      -1.37510000      -2.12240000
H        3.23750000      -3.04200000      -1.53560000
H        0.06050000      -5.45480000      -3.69100000
