17
Properties=species:S:1:pos:R:3 gdb_6750=T pbc="F F F"
C       -0.02530000       1.55970000      -0.00290000
C       -0.00080000       0.03030000       0.00280000
C        0.74010000      -0.53580000       1.23210000
C        0.77820000      -1.99140000       1.26220000
C        0.79210000      -3.19740000       1.25770000
C        0.77770000      -4.65080000       1.19070000
N        1.37330000      -5.25740000       2.26070000
O        0.27260000      -5.26740000       0.27200000
H        0.98880000       1.97440000      -0.01930000
H       -0.55440000       1.94030000      -0.88130000
H       -0.53010000       1.95340000       0.88650000
H       -1.02190000      -0.36570000      -0.00690000
H        0.48400000      -0.34490000      -0.90480000
H        1.76760000      -0.14780000       1.25320000
H        0.26290000      -0.16820000       2.15080000
H        1.84880000      -4.72550000       2.96800000
H        1.45280000      -6.26100000       2.25430000
