22
Properties=species:S:1:pos:R:3 gdb_122831=T pbc="F F F"
C       -0.79580000       0.96270000       0.65480000
C        0.27470000      -0.00730000       0.14900000
C        0.82600000      -0.90760000       1.25350000
N        1.87900000      -1.78370000       0.73470000
C        2.43260000      -2.68450000       1.72170000
C        1.50800000      -3.83400000       2.12480000
O        0.51680000      -4.16260000       1.52110000
O        1.96300000      -4.46370000       3.22390000
C        1.19450000      -5.59810000       3.64850000
H       -0.39520000       1.62790000       1.42790000
H       -1.17750000       1.58970000      -0.15650000
H       -1.64650000       0.42600000       1.08890000
H       -0.14790000      -0.63620000      -0.64640000
H        1.10740000       0.54410000      -0.30260000
H        1.27030000      -0.28580000       2.04310000
H       -0.00440000      -1.46750000       1.71780000
H        1.49060000      -2.34110000      -0.02130000
H        3.35430000      -3.14280000       1.33790000
H        2.72250000      -2.13030000       2.62040000
H        1.69870000      -5.98450000       4.53430000
H        0.17090000      -5.30060000       3.88960000
H        1.16300000      -6.35790000       2.86350000
