17
Properties=species:S:1:pos:R:3 gdb_105734=T pbc="F F F"
O        0.03990000       1.33990000      -0.26200000
C       -0.01300000      -0.03450000       0.02800000
C       -1.47240000      -0.52440000       0.17890000
O       -2.15400000      -0.14830000      -1.03980000
C       -2.71290000      -1.29710000      -1.67800000
C       -2.28130000      -2.46130000      -0.83400000
C       -1.59090000      -2.03340000       0.21430000
C       -2.12560000       0.10170000       1.33540000
C       -2.64950000       0.58060000       2.30480000
H       -0.57170000       1.47910000      -0.99580000
H        0.45450000      -0.64340000      -0.76210000
H        0.53580000      -0.19480000       0.96120000
H       -3.80840000      -1.20320000      -1.73020000
H       -2.33960000      -1.35890000      -2.71060000
H       -2.52860000      -3.48810000      -1.07200000
H       -1.16510000      -2.62460000       1.01350000
H       -3.11310000       1.01900000       3.15390000
