19
Properties=species:S:1:pos:R:3 gdb_109831=T pbc="F F F"
C        0.21820000       1.47600000       0.31900000
C        0.12450000      -0.00430000       0.01210000
C        0.54420000      -0.61570000      -1.31780000
C        1.15660000       0.19420000      -2.44710000
O        2.17490000      -0.52580000      -3.12050000
C        1.35170000      -0.88040000      -0.08090000
O        2.63860000      -0.27790000      -0.07310000
C        3.21330000      -0.08540000       1.13640000
O        4.30390000       0.38190000       1.25840000
H        1.14600000       1.92060000      -0.04600000
H       -0.61660000       2.02160000      -0.13230000
H        0.17590000       1.64400000       1.40060000
H       -0.72710000      -0.49170000       0.48090000
H       -0.04550000      -1.45980000      -1.66350000
H        0.38820000       0.40820000      -3.19690000
H        1.52960000       1.15840000      -2.08170000
H        2.90280000      -0.62050000      -2.49580000
H        1.34830000      -1.87240000       0.36120000
H        2.56550000      -0.41170000       1.97140000
