21
Properties=species:S:1:pos:R:3 gdb_68483=T pbc="F F F"
C       -0.08550000       1.55820000      -0.02890000
C        0.04090000       0.04030000      -0.00550000
C        1.13100000      -0.62920000      -0.90100000
C        1.41700000      -1.62010000       0.26480000
C        0.76920000      -0.58790000       1.22460000
O        0.74460000      -2.86420000       0.14450000
C       -0.65740000      -2.84440000       0.23750000
O       -1.28540000      -1.97100000      -0.66100000
C       -1.33340000      -0.60850000      -0.25450000
H        0.87670000       2.03320000       0.18780000
H       -0.42320000       1.91560000      -1.00840000
H       -0.80510000       1.91200000       0.71960000
H        0.81360000      -1.07330000      -1.84540000
H        1.97910000       0.04130000      -1.07020000
H        2.46130000      -1.88140000       0.44560000
H        1.53390000       0.09240000       1.61050000
H        0.17530000      -0.94950000       2.06830000
H       -0.97510000      -3.85540000      -0.02840000
H       -0.98100000      -2.61530000       1.26710000
H       -1.95910000      -0.50520000       0.64780000
H       -1.84230000      -0.09210000      -1.07460000
