19
Properties=species:S:1:pos:R:3 gdb_116866=T pbc="F F F"
C       -0.26270000       1.61950000      -0.29230000
C        0.03620000       0.12390000      -0.01730000
C       -1.20570000      -0.62990000       0.19320000
C       -2.23520000      -1.22100000       0.37610000
C        0.84730000      -0.46560000      -1.08930000
C        1.52680000      -0.91960000      -1.97300000
C        2.32380000      -1.50350000      -3.04420000
C        1.70040000      -2.78640000      -3.60580000
O        2.56400000      -3.24930000      -4.63020000
H        0.67430000       2.17070000      -0.40310000
H       -0.84300000       1.72620000      -1.21130000
H       -0.83450000       2.04570000       0.53580000
H        0.61670000       0.07030000       0.91550000
H       -3.13960000      -1.75410000       0.53530000
H        2.44380000      -0.78870000      -3.86740000
H        3.33430000      -1.73740000      -2.68750000
H        1.59320000      -3.52440000      -2.79710000
H        0.69330000      -2.56530000      -3.98910000
H        2.19140000      -4.05590000      -4.99720000
