22
Properties=species:S:1:pos:R:3 gdb_102676=T pbc="F F F"
C        1.13890000       1.89130000      -0.18660000
C        0.40820000       0.54770000      -0.29700000
C        1.05360000      -0.47880000      -1.25630000
C        0.88230000      -1.90950000      -0.73810000
C        1.49790000      -2.95080000      -1.69190000
C        1.33790000      -4.31830000      -1.20570000
N        1.20460000      -5.39450000      -0.80590000
O        0.47860000      -0.47050000      -2.55790000
C        0.77680000       0.64820000      -3.36150000
H        2.16490000       1.75020000       0.17060000
H        1.19410000       2.41640000      -1.14410000
H        0.63150000       2.55170000       0.52340000
H        0.35180000       0.10250000       0.70330000
H       -0.62810000       0.69370000      -0.62370000
H        2.13350000      -0.25960000      -1.34540000
H        1.34780000      -1.99020000       0.24890000
H       -0.18540000      -2.11910000      -0.61110000
H        1.03150000      -2.85980000      -2.67650000
H        2.56840000      -2.75440000      -1.82820000
H        0.25560000       1.55620000      -3.02860000
H        1.85770000       0.85640000      -3.38550000
H        0.44190000       0.41220000      -4.37510000
