17
Properties=species:S:1:pos:R:3 gdb_108112=T pbc="F F F"
O        0.09520000       1.35270000       0.47210000
C       -0.04590000       0.07910000      -0.14270000
C       -1.45210000      -0.44830000      -0.11990000
C       -2.61790000       0.13840000      -0.91040000
C       -3.63870000      -0.89610000      -0.38760000
O       -3.03020000      -2.14290000      -0.70840000
C       -1.80180000      -1.93680000      -0.03820000
C       -2.12570000      -1.02640000       1.12130000
O       -3.51850000      -0.78760000       1.02560000
H       -0.43070000       1.98290000      -0.03030000
H        0.32990000       0.09390000      -1.17830000
H        0.61130000      -0.59020000       0.42370000
H       -2.88610000       1.15500000      -0.61180000
H       -2.48660000       0.07700000      -1.99330000
H       -4.67750000      -0.86700000      -0.70340000
H       -1.11350000      -2.76880000      -0.05860000
H       -1.72280000      -1.05340000       2.12260000
