17
Properties=species:S:1:pos:R:3 gdb_48579=T pbc="F F F"
O       -0.02230000      -0.06360000      -0.05160000
C        0.04760000       1.12120000       0.16100000
C        1.30930000       1.91700000       0.08710000
C        2.66720000       1.28390000      -0.31800000
C        3.03980000       2.76430000      -0.67070000
C        1.54220000       2.92750000      -1.09340000
C        2.99450000       3.39320000       0.71420000
O        3.75830000       4.15770000       1.23470000
C        1.69520000       2.78760000       1.30570000
H       -0.86120000       1.71320000       0.42000000
H        3.24760000       0.77340000       0.45390000
H        2.58010000       0.65570000      -1.20550000
H        3.87080000       3.03790000      -1.31620000
H        1.34340000       2.47670000      -2.06730000
H        1.08600000       3.91860000      -1.02590000
H        0.96650000       3.56650000       1.55050000
H        1.90390000       2.20970000       2.21080000
