15
Properties=species:S:1:pos:R:3 gdb_132858=T pbc="F F F"
C       -0.01700000       1.55490000       0.02040000
C       -0.00120000       0.05050000      -0.00850000
C       -0.03230000      -0.65470000      -1.17050000
N       -0.01630000      -2.02400000      -1.16670000
C        0.03130000      -2.84890000      -0.03780000
O        0.04190000      -4.06370000      -0.12550000
C        0.06330000      -2.06210000       1.18990000
F        0.10900000      -2.76340000       2.31670000
C        0.04830000      -0.70710000       1.20600000
H        0.87940000       1.95640000       0.50720000
H       -0.06070000       1.96900000      -0.99040000
H       -0.88190000       1.93640000       0.57530000
H       -0.07060000      -0.18620000      -2.14630000
H       -0.04010000      -2.53200000      -2.04020000
H        0.07450000      -0.19830000       2.16490000
