17
Properties=species:S:1:pos:R:3 gdb_77709=T pbc="F F F"
O        0.56060000       0.76240000      -0.55520000
C        0.03840000      -0.48120000      -0.19870000
C        0.12900000      -0.86480000       1.29130000
C        1.28640000      -0.99410000       2.16580000
O        0.47490000       0.19870000       2.18110000
C       -1.29160000      -1.43540000       1.28840000
C       -1.48550000      -0.68560000      -0.04320000
C       -2.54580000       0.23370000      -0.44670000
O       -2.36890000      -1.04820000      -1.07800000
H        0.59480000       1.27950000       0.26230000
H        0.46110000      -1.24460000      -0.86270000
H        1.22350000      -1.59970000       3.06820000
H        2.28710000      -0.86670000       1.75580000
H       -1.31600000      -2.52180000       1.16100000
H       -1.92390000      -1.14780000       2.13040000
H       -3.44080000       0.33070000       0.16580000
H       -2.29410000       1.09310000      -1.06500000
