21
Properties=species:S:1:pos:R:3 gdb_106506=T pbc="F F F"
C        0.01890000       1.51250000      -0.27190000
C       -0.00070000       0.03640000       0.14290000
C       -1.39330000      -0.55680000       0.15380000
C       -1.60400000      -2.09510000       0.14530000
C       -2.76260000      -1.71080000      -0.79890000
C       -4.02950000      -1.30350000      -0.03100000
C       -3.64190000      -0.32440000       1.05740000
C       -2.36560000       0.04370000       1.16110000
O       -2.04200000      -0.50200000      -1.16780000
H        1.04370000       1.89340000      -0.30680000
H       -0.42730000       1.63410000      -1.26260000
H       -0.54640000       2.13720000       0.42700000
H        0.61730000      -0.54800000      -0.54790000
H        0.43510000      -0.08780000       1.14330000
H       -0.80640000      -2.61230000      -0.39270000
H       -1.82660000      -2.59330000       1.09060000
H       -2.97300000      -2.34610000      -1.66350000
H       -4.75300000      -0.84790000      -0.71990000
H       -4.52160000      -2.18840000       0.39550000
H       -4.41210000       0.05440000       1.72320000
H       -2.00790000       0.72470000       1.92670000
