17
Properties=species:S:1:pos:R:3 gdb_68810=T pbc="F F F"
O        0.00530000       1.44720000      -0.12410000
C       -0.03200000       0.06860000      -0.08150000
C       -0.24670000      -0.77290000       1.15170000
C       -1.15750000      -0.96210000      -0.05080000
O       -2.52240000      -0.78010000       0.01160000
C       -0.44660000      -1.79900000      -1.13620000
C        0.71510000      -0.72620000      -1.14160000
C       -0.11360000      -3.17770000      -0.82810000
C        0.16150000      -4.31330000      -0.54050000
H       -0.48790000       1.79690000       0.62500000
H        0.45870000      -1.53620000       1.47600000
H       -0.74630000      -0.24370000       1.96040000
H       -2.90140000      -1.48340000       0.55210000
H       -1.01100000      -1.74080000      -2.07150000
H        0.76940000      -0.19850000      -2.09530000
H        1.70590000      -1.09440000      -0.86450000
H        0.40480000      -5.31880000      -0.30120000
