20
Properties=species:S:1:pos:R:3 gdb_65810=T pbc="F F F"
C        0.18680000       1.48760000      -0.53780000
C       -0.15030000       0.11850000       0.04410000
C        0.49070000      -1.07340000      -0.73460000
C        1.62600000      -1.09990000       0.32440000
C        0.72050000      -0.26120000       1.26650000
O       -1.53630000      -0.00710000       0.38440000
C       -2.49060000       0.30160000      -0.59510000
C       -2.49170000      -0.60880000      -1.76050000
N       -2.50410000      -1.31020000      -2.67860000
H        1.27130000       1.59450000      -0.62990000
H       -0.23320000       1.62940000      -1.53880000
H       -0.17770000       2.28600000       0.11740000
H       -0.14550000      -1.95820000      -0.66930000
H        0.76120000      -0.90780000      -1.77960000
H        1.94120000      -2.07950000       0.68690000
H        2.51380000      -0.55130000      -0.00040000
H        1.17080000       0.55860000       1.83170000
H        0.14440000      -0.89250000       1.94680000
H       -3.46680000       0.22320000      -0.10600000
H       -2.39700000       1.32890000      -0.97310000
