17
Properties=species:S:1:pos:R:3 gdb_85309=T pbc="F F F"
O        0.03720000       1.36830000      -0.36380000
C        0.06100000      -0.00740000      -0.03510000
C        0.70480000      -0.26000000       1.35600000
C       -0.31760000      -0.45310000       2.48110000
O       -0.06180000      -0.32680000       3.65180000
C       -1.69970000      -0.82990000       1.95280000
C       -1.58070000      -1.82480000       0.77840000
C       -1.37860000      -0.53200000      -0.03360000
O       -2.06620000       0.23060000       1.01240000
H       -0.63400000       1.76420000       0.20950000
H        0.65060000      -0.49460000      -0.81870000
H        1.30750000      -1.17720000       1.33410000
H        1.38790000       0.55380000       1.60980000
H       -2.43090000      -0.97590000       2.74850000
H       -0.78030000      -2.56700000       0.79660000
H       -2.53510000      -2.30480000       0.55830000
H       -1.85970000      -0.41460000      -1.00710000
