14
Properties=species:S:1:pos:R:3 gdb_131353=T pbc="F F F"
O       -0.56340000       1.24860000      -0.37030000
C       -0.13080000       0.01920000      -0.03100000
N        0.72640000      -0.65340000      -0.78580000
N        0.90330000      -1.81720000      -0.11200000
C        0.18300000      -1.87960000       1.03000000
C        0.21110000      -3.07090000       1.95110000
C        1.09610000      -4.12900000       1.46570000
N        1.80470000      -4.94060000       1.04870000
C       -0.51540000      -0.69160000       1.12680000
H       -0.13630000       1.48030000      -1.20480000
H        1.52290000      -2.51900000      -0.48310000
H        0.54280000      -2.77290000       2.95300000
H       -0.79630000      -3.48760000       2.06960000
H       -1.19380000      -0.37980000       1.90280000
