16
Properties=species:S:1:pos:R:3 gdb_71588=T pbc="F F F"
C        0.03060000       1.46920000      -0.09110000
C       -0.01050000      -0.01950000       0.01380000
O        0.66680000      -0.84620000      -1.00710000
C        0.07770000      -1.82850000      -0.08940000
C        0.59790000      -0.97010000       1.08760000
O       -0.05960000      -1.07160000       2.34490000
C       -1.40880000      -1.13050000       2.23080000
N       -2.06180000      -1.10090000       1.14580000
C       -1.23240000      -0.99580000      -0.03880000
H        1.06190000       1.83340000      -0.05620000
H       -0.42730000       1.80070000      -1.02780000
H       -0.52360000       1.91570000       0.74030000
H        0.22160000      -2.88660000      -0.29770000
H        1.67240000      -0.92770000       1.25420000
H       -1.88710000      -1.20860000       3.20300000
H       -1.81160000      -0.97220000      -0.96140000
