23
Properties=species:S:1:pos:R:3 gdb_99519=T pbc="F F F"
C       -0.15020000       1.58720000      -0.06810000
C        0.00910000       0.06770000       0.01510000
C        0.79420000      -0.52010000      -1.18380000
C        2.18800000      -0.08070000      -1.16370000
C        3.33050000       0.29370000      -1.11710000
C        0.67670000      -2.07270000      -1.30060000
C        1.37380000      -2.56520000      -2.57560000
C        1.22860000      -2.79620000      -0.06550000
O       -0.73400000      -2.29820000      -1.41620000
H        0.82260000       2.08790000      -0.09330000
H       -0.70010000       1.87800000      -0.97030000
H       -0.70390000       1.96820000       0.79550000
H        0.52150000      -0.19590000       0.94650000
H       -0.97110000      -0.41490000       0.03310000
H        0.32600000      -0.13050000      -2.09890000
H        4.33870000       0.62590000      -1.08970000
H        2.44630000      -2.35710000      -2.55140000
H        1.24020000      -3.64780000      -2.68480000
H        0.94230000      -2.07870000      -3.45530000
H        0.66100000      -2.53030000       0.82930000
H        1.15740000      -3.88160000      -0.20150000
H        2.28080000      -2.54760000       0.09940000
H       -0.87290000      -3.24820000      -1.48550000
