23
Properties=species:S:1:pos:R:3 gdb_100139=T pbc="F F F"
C        0.07750000       1.51180000       0.24940000
C       -0.03310000       0.01440000      -0.05230000
C        0.66520000      -0.44810000      -1.35210000
C        0.09140000       0.25520000      -2.58500000
O        2.05180000      -0.07660000      -1.32170000
C        0.54000000      -1.98490000      -1.45680000
C        1.29220000      -2.60560000      -2.65200000
C        1.31840000      -4.06180000      -2.59880000
C        1.32570000      -5.26220000      -2.53130000
H        1.11900000       1.84000000       0.19300000
H       -0.50240000       2.11550000      -0.45480000
H       -0.29800000       1.73010000       1.25360000
H        0.40840000      -0.55300000       0.77970000
H       -1.08740000      -0.28670000      -0.09080000
H        0.19670000       1.33810000      -2.49250000
H        0.62460000      -0.04810000      -3.48880000
H       -0.96920000       0.01620000      -2.70880000
H        2.44230000      -0.46440000      -0.53020000
H        0.93490000      -2.42790000      -0.53330000
H       -0.51800000      -2.26690000      -1.50100000
H        0.83050000      -2.29110000      -3.59520000
H        2.31440000      -2.21040000      -2.66520000
H        1.34010000      -6.32270000      -2.48580000
