22
Properties=species:S:1:pos:R:3 gdb_85896=T pbc="F F F"
C        0.00860000       1.55560000      -0.04240000
C        0.00370000       0.02650000      -0.03800000
C       -1.43640000      -0.49630000       0.07540000
C        0.71810000      -0.59200000      -1.26870000
C        1.33490000      -1.91060000      -0.74660000
O        2.57820000      -2.25320000      -1.34360000
C        1.52640000      -1.65020000       0.73780000
C        2.18930000      -0.37470000       1.10440000
N        0.72620000      -0.48920000       1.16390000
H        1.02780000       1.95150000      -0.08760000
H       -0.54040000       1.94070000      -0.90770000
H       -0.46630000       1.94280000       0.86420000
H       -2.04500000      -0.14590000      -0.76480000
H       -1.46140000      -1.59060000       0.08090000
H       -1.89130000      -0.14870000       1.00680000
H        0.03320000      -0.74880000      -2.10680000
H        1.52900000       0.04940000      -1.62730000
H        0.62270000      -2.74040000      -0.86960000
H        2.40890000      -2.51310000      -2.25450000
H        1.56230000      -2.50280000       1.40910000
H        2.67090000      -0.27930000       2.07290000
H        2.65500000       0.20610000       0.31360000
