17
Properties=species:S:1:pos:R:3 gdb_75128=T pbc="F F F"
N        0.05940000       1.38100000       0.30940000
C        0.00990000       0.02970000       0.04060000
N       -1.12030000      -0.55530000      -0.04540000
C       -1.19800000      -2.00650000      -0.13840000
C       -0.51560000      -2.66020000      -1.34410000
O       -1.13670000      -3.32830000      -2.13660000
C        1.00950000      -2.54860000      -1.47210000
O        1.55470000      -1.25080000      -1.33830000
C        1.37660000      -0.64200000      -0.07810000
H        0.82530000       1.90360000      -0.08750000
H       -0.83710000       1.84440000       0.25340000
H       -0.77790000      -2.48360000       0.76480000
H       -2.25000000      -2.29440000      -0.19390000
H        1.44950000      -3.22850000      -0.71880000
H        1.29050000      -2.90830000      -2.46340000
H        2.17640000       0.09700000       0.02810000
H        1.49350000      -1.37350000       0.73860000
