23
Properties=species:S:1:pos:R:3 gdb_60839=T pbc="F F F"
C        0.28330000       1.45660000       0.29730000
C       -0.07630000      -0.00870000       0.00810000
C       -1.58510000      -0.17920000      -0.11220000
O       -2.19890000      -1.14710000       0.25820000
C        0.60650000      -0.55310000      -1.25790000
C        0.22480000       0.13330000      -2.56140000
C        2.04330000      -1.01760000      -1.13120000
C        0.94120000      -2.02980000      -1.35120000
C        0.59310000      -3.05830000      -0.29390000
H        1.36900000       1.58340000       0.33100000
H       -0.10890000       2.13020000      -0.47150000
H       -0.12690000       1.77970000       1.25940000
H        0.22960000      -0.62920000       0.85450000
H       -2.11610000       0.67640000      -0.59370000
H        0.45560000       1.20400000      -2.54560000
H        0.77730000      -0.30460000      -3.39780000
H       -0.84270000       0.02400000      -2.78510000
H        2.73020000      -0.79110000      -1.94040000
H        2.49890000      -0.99210000      -0.14550000
H        0.87360000      -2.42230000      -2.36360000
H        0.82870000      -2.71060000       0.71550000
H       -0.47100000      -3.31110000      -0.31230000
H        1.16890000      -3.97540000      -0.46000000
