17
Properties=species:S:1:pos:R:3 gdb_91307=T pbc="F F F"
C       -0.04160000       1.58420000       0.13680000
N        0.11740000       0.14840000       0.16820000
C       -1.08530000      -0.71640000       0.21280000
C       -0.39900000      -1.58410000       1.28310000
O        0.54480000      -2.54840000       0.76060000
C        1.66350000      -1.65340000       0.96910000
C        2.50420000      -1.46810000      -0.21210000
N        3.20430000      -1.31710000      -1.11850000
C        0.69920000      -0.49720000       1.34990000
H        0.93920000       2.06700000       0.18480000
H       -0.50830000       1.87650000      -0.80910000
H       -0.66570000       1.97850000       0.96080000
H       -1.97440000      -0.20610000       0.61640000
H       -1.33990000      -1.20550000      -0.73250000
H       -0.98340000      -1.98170000       2.11300000
H        2.28610000      -2.00270000       1.80330000
H        0.94790000       0.13260000       2.20620000
