17
Properties=species:S:1:pos:R:3 gdb_33569=T pbc="F F F"
C        0.21540000      -1.08850000       0.09740000
C        0.08280000       0.10290000       0.01850000
C       -0.07110000       1.56880000      -0.03800000
C       -0.73000000       2.10410000       1.26640000
C        0.48480000       2.25990000       2.18460000
C        1.55590000       2.74630000       1.20310000
O        1.22650000       2.18820000      -0.07580000
C       -0.82410000       1.94900000      -1.23740000
C       -1.46450000       2.26950000      -2.20130000
H        0.33580000      -2.14260000       0.14870000
H       -1.18820000       3.07270000       1.04920000
H       -1.49720000       1.42650000       1.64190000
H        0.31460000       2.96210000       3.00390000
H        0.76350000       1.29250000       2.61230000
H        1.55550000       3.84200000       1.12120000
H        2.56620000       2.42310000       1.47340000
H       -2.02010000       2.54700000      -3.06280000
