21
Properties=species:S:1:pos:R:3 gdb_121375=T pbc="F F F"
O       -0.00960000       1.42260000      -0.09880000
C        0.01420000       0.00140000      -0.07790000
C       -1.42690000      -0.48350000       0.01410000
C       -1.52870000      -2.00210000      -0.03480000
O       -0.78930000      -2.58410000       1.05000000
C       -1.54610000      -3.62390000       1.66550000
C       -2.67380000      -3.95530000       0.68230000
C       -2.95110000      -2.57750000       0.06400000
O       -3.71840000      -1.75460000       0.93220000
H        0.89870000       1.73570000      -0.06360000
H        0.48650000      -0.39990000      -0.99110000
H        0.58290000      -0.38120000       0.78070000
H       -1.88080000      -0.11620000       0.93710000
H       -1.99710000      -0.05860000      -0.82090000
H       -1.08920000      -2.36290000      -0.98010000
H       -0.88420000      -4.47310000       1.86560000
H       -1.95590000      -3.27080000       2.62190000
H       -2.32760000      -4.65040000      -0.09040000
H       -3.55620000      -4.38910000       1.16150000
H       -3.41860000      -2.64140000      -0.92810000
H       -4.58600000      -2.15730000       1.03400000
