19
Properties=species:S:1:pos:R:3 gdb_103720=T pbc="F F F"
C        0.22410000       1.18950000       0.31450000
O       -0.20690000      -0.04610000      -0.23340000
C        0.56380000      -0.52260000      -1.29920000
C        0.34420000       0.19410000      -2.61160000
C        1.90220000      -1.12110000      -0.95860000
C        0.70440000      -2.04540000      -1.25310000
N        0.01730000      -2.75880000      -0.21340000
C        0.74230000      -2.75130000      -2.51780000
N        0.80190000      -3.31260000      -3.52750000
H        1.27450000       1.14530000       0.63220000
H        0.10560000       2.01620000      -0.39720000
H       -0.40720000       1.38190000       1.18430000
H        0.71540000       1.22270000      -2.56050000
H        0.86470000      -0.30990000      -3.42820000
H       -0.72340000       0.22150000      -2.84840000
H        2.70170000      -1.06040000      -1.68870000
H        2.21480000      -1.10170000       0.07980000
H        0.65100000      -3.34960000       0.31290000
H       -0.41390000      -2.09130000       0.41650000
