17
Properties=species:S:1:pos:R:3 gdb_75175=T pbc="F F F"
C        0.10350000       1.36990000       0.23100000
C       -0.04990000      -0.09290000       0.00080000
N        0.18730000      -0.72550000      -1.07450000
C       -0.14190000      -2.13100000      -0.81720000
C       -0.50690000      -2.18440000       0.69190000
C        0.52420000      -2.95110000       1.53570000
C        0.22420000      -2.93320000       2.96540000
N       -0.02370000      -2.92800000       4.09360000
O       -0.50590000      -0.79830000       1.08260000
H        0.79990000       1.55350000       1.05500000
H        0.47040000       1.84740000      -0.67660000
H       -0.85810000       1.80830000       0.51570000
H       -0.97560000      -2.44310000      -1.45530000
H        0.71070000      -2.77520000      -1.06200000
H       -1.50730000      -2.58170000       0.88040000
H        0.56010000      -3.99260000       1.19540000
H        1.51840000      -2.52100000       1.37010000
