18
Properties=species:S:1:pos:R:3 gdb_99802=T pbc="F F F"
C       -0.07740000       1.39840000      -0.05260000
O        0.03700000      -0.01680000      -0.00910000
C        0.70910000      -0.56540000       1.11810000
C        2.18760000      -0.12020000       1.20340000
C        0.01040000      -0.15650000       2.37330000
N       -0.52260000       0.19560000       3.33620000
C        0.62650000      -2.02360000       0.99090000
C        0.59570000      -3.22200000       0.89880000
C        0.54050000      -4.67080000       0.78290000
H        0.89020000       1.89030000      -0.21350000
H       -0.72690000       1.61660000      -0.90220000
H       -0.53720000       1.79860000       0.86020000
H        2.26510000       0.95580000       1.37210000
H        2.68450000      -0.63690000       2.02680000
H        2.68040000      -0.38210000       0.26470000
H        1.04790000      -5.15090000       1.62640000
H       -0.49530000      -5.02560000       0.76870000
H        1.02590000      -5.01140000      -0.13770000
