16
Properties=species:S:1:pos:R:3 gdb_55013=T pbc="F F F"
N        0.73790000      -0.47750000       0.23350000
C       -0.28390000       0.21280000      -0.32270000
O       -0.23050000       1.37710000      -0.67240000
C       -1.59230000      -0.53720000      -0.53790000
C       -1.80690000      -1.29530000      -1.82050000
N       -1.81400000      -1.96860000      -0.53790000
C       -0.98850000      -3.00820000      -0.12900000
N       -1.01380000      -4.08580000      -0.97620000
O       -0.33190000      -2.99610000       0.90230000
H        1.57810000       0.04370000       0.43080000
H        0.56920000      -1.36680000       0.69750000
H       -2.43530000       0.03600000      -0.16090000
H       -2.75870000      -1.22150000      -2.34000000
H       -0.93720000      -1.44110000      -2.45740000
H       -1.78030000      -4.18410000      -1.62170000
H       -0.63060000      -4.93620000      -0.59540000
