18
Properties=species:S:1:pos:R:3 gdb_60828=T pbc="F F F"
O       -0.23810000       1.29320000      -0.18520000
C        0.15340000      -0.01570000       0.14920000
C        0.75580000      -0.69420000      -1.06670000
O        0.77180000      -0.15390000      -2.14510000
C        1.17680000       0.04460000       1.30330000
O        2.27130000       0.85150000       0.90590000
C        0.53090000       0.53330000       2.58350000
C        0.10830000      -0.44750000       3.61610000
N        1.26430000       0.43220000       3.84870000
H       -0.12390000       1.35810000      -1.14830000
H       -0.71180000      -0.62340000       0.46940000
H        1.16630000      -1.71220000      -0.91320000
H        1.58700000      -0.96060000       1.47330000
H        1.88330000       1.67050000       0.56880000
H       -0.03400000       1.45650000       2.47370000
H       -0.75750000      -0.24490000       4.23970000
H        0.28290000      -1.50320000       3.41870000
H        2.13510000      -0.07460000       3.70370000
