15
Properties=species:S:1:pos:R:3 gdb_133539=T pbc="F F F"
O       -0.06510000       1.44740000      -0.09620000
C       -0.02200000       0.05170000       0.03300000
C        0.17620000      -0.50990000       1.47260000
N       -1.26830000      -0.84150000       1.52880000
C       -1.43920000      -0.56200000       0.08200000
C        0.90760000      -0.52550000      -1.02690000
F        2.13660000       0.02030000      -0.91070000
F        1.04320000      -1.85480000      -0.90620000
F        0.46850000      -0.27210000      -2.26250000
H        0.83640000       1.78330000      -0.02350000
H        0.85760000      -1.36620000       1.51890000
H        0.48580000       0.24170000       2.20640000
H       -1.46540000      -1.79820000       1.79540000
H       -2.23320000       0.15540000      -0.14410000
H       -1.55230000      -1.44330000      -0.55950000
