16
Properties=species:S:1:pos:R:3 gdb_17308=T pbc="F F F"
C       -0.01130000       1.52650000      -0.00300000
C       -0.01350000       0.02540000       0.01610000
C       -0.89750000      -0.83550000       0.88190000
O       -1.80420000      -1.81150000       0.50140000
C        0.59940000      -0.96730000       1.05700000
C        1.29440000      -1.69950000      -0.11820000
O        0.30450000      -2.18050000      -1.05950000
C        0.71040000      -0.79440000      -1.09760000
H        0.99140000       1.93070000      -0.18920000
H       -0.67550000       1.91230000      -0.78630000
H       -0.35800000       1.92970000       0.95360000
H       -1.32890000      -0.24830000       1.69180000
H       -1.36940000      -2.30820000      -0.20510000
H        1.11190000      -0.74110000       1.98470000
H        2.24160000      -2.22340000      -0.09600000
H        1.07620000      -0.41340000      -2.04390000
