13
Properties=species:S:1:pos:R:3 gdb_132250=T pbc="F F F"
F       -0.00610000       0.02390000       0.00350000
C       -0.01190000       1.35390000       0.01040000
C       -1.21940000       2.03030000       0.03060000
C       -1.17830000       3.43100000       0.03730000
N       -0.03010000       4.13260000       0.02510000
C        1.10800000       3.44140000       0.00580000
C        1.18680000       2.05050000      -0.00250000
C       -2.40220000       4.17110000       0.05800000
C       -3.44840000       4.76480000       0.07550000
H       -2.15880000       1.49330000       0.04070000
H        2.02180000       4.03030000      -0.00370000
H        2.13490000       1.52800000      -0.01820000
H       -4.36320000       5.30460000       0.09100000
