14
Properties=species:S:1:pos:R:3 gdb_50684=T pbc="F F F"
O        0.57060000      -0.17260000      -0.02550000
C        0.20480000       0.96900000      -0.07300000
C        1.15640000       2.16380000       0.07020000
O        2.45460000       1.78220000       0.44280000
C        3.15020000       1.57520000      -0.76240000
O        2.72460000       2.61430000      -1.63670000
C        1.39520000       2.94290000      -1.28180000
C        0.44390000       2.58780000      -2.34950000
N       -0.31600000       2.32790000      -3.18000000
H       -0.86260000       1.24690000      -0.20960000
H        0.75080000       2.83530000       0.83490000
H        4.22120000       1.68590000      -0.58210000
H        2.91530000       0.59080000      -1.18900000
H        1.33400000       4.02410000      -1.12020000
