14
Properties=species:S:1:pos:R:3 gdb_37552=T pbc="F F F"
O       -0.13120000       1.50800000      -0.04330000
C        1.30620000       1.25720000       0.01450000
C        1.20100000       0.08510000       1.01650000
C       -0.05240000       0.07410000       0.00480000
C        1.24370000      -0.04670000      -0.87420000
O        1.87320000      -0.18470000      -2.12660000
C        3.15430000      -0.50670000      -1.67450000
N        3.35990000      -0.81680000      -0.45280000
C        1.98790000      -0.89490000       0.10890000
H        1.98940000       2.10250000      -0.01300000
H        1.11420000       0.15950000       2.09830000
H       -0.96370000      -0.52040000       0.02870000
H        3.90800000      -0.45900000      -2.45210000
H        1.70650000      -1.94650000       0.22910000
