16
Properties=species:S:1:pos:R:3 gdb_27176=T pbc="F F F"
O       -0.20930000       1.45180000       0.16300000
C       -0.04050000       0.09660000       0.10060000
C        0.16970000      -0.58640000      -1.07950000
N        0.33580000      -1.91570000      -0.74540000
C        0.20480000      -2.08160000       0.60220000
C       -0.01390000      -0.84240000       1.16790000
C        0.24790000      -0.12710000      -2.47130000
C        1.34050000      -0.50810000      -3.38770000
O        0.06400000      -1.14900000      -3.47120000
H       -0.45470000       1.68740000       1.06200000
H        0.35690000      -2.64250000      -1.44060000
H        0.27100000      -3.05720000       1.05540000
H       -0.13260000      -0.63130000       2.22030000
H       -0.27030000       0.80930000      -2.67220000
H        1.59340000       0.13620000      -4.22910000
H        2.15290000      -1.12910000      -3.01320000
