17
Properties=species:S:1:pos:R:3 gdb_34444=T pbc="F F F"
N       -0.06200000      -1.12790000       0.02160000
C       -0.03060000       0.02750000       0.04000000
C       -0.00440000       1.47680000       0.03270000
N       -0.82280000       2.10860000       1.06380000
C       -0.63960000       3.54840000       0.73750000
C        0.37640000       3.44180000      -0.39410000
C        1.34780000       2.25710000      -0.05820000
C        1.44300000       1.92760000      -1.56500000
C       -0.04650000       2.26690000      -1.33730000
H       -1.79320000       1.82430000       0.98040000
H       -1.57260000       4.02730000       0.41820000
H       -0.25270000       4.09920000       1.60200000
H        0.78530000       4.35220000      -0.83150000
H        2.13080000       2.24140000       0.69980000
H        2.00970000       2.63620000      -2.17260000
H        1.68260000       0.89620000      -1.83320000
H       -0.86620000       2.25910000      -2.05700000
