15
Properties=species:S:1:pos:R:3 gdb_48963=T pbc="F F F"
O       -0.13770000       0.08810000      -0.22010000
C        0.03220000       1.18470000       0.25000000
C        1.28560000       1.97110000       0.07330000
O        1.51900000       3.04890000       0.97520000
C        2.53630000       3.48810000       0.02400000
C        3.61410000       2.40010000       0.20520000
C        2.68330000       1.30400000      -0.33910000
O        2.49550000       1.74920000      -1.71780000
C        1.72040000       2.79610000      -1.16640000
H       -0.75090000       1.70890000       0.83970000
H        2.77720000       4.54640000       0.09140000
H        4.49620000       2.50920000      -0.42780000
H        3.89030000       2.30030000       1.25600000
H        2.89960000       0.24410000      -0.23930000
H        1.09330000       3.36260000      -1.85190000
