15
Properties=species:S:1:pos:R:3 gdb_84416=T pbc="F F F"
C        0.10270000       1.44160000      -0.09500000
N        0.00940000      -0.00380000      -0.08060000
C       -0.20560000      -0.85180000      -1.15570000
N       -0.24580000      -2.10660000      -0.90360000
C       -0.00040000      -2.21420000       0.54100000
C        1.24010000      -3.09200000       0.75580000
O        2.18720000      -2.79380000       1.42620000
C        0.13460000      -0.78390000       1.07320000
O        0.29800000      -0.37410000       2.19310000
H        0.95110000       1.77910000      -0.69850000
H       -0.81560000       1.89390000      -0.48200000
H        0.25090000       1.75970000       0.93880000
H       -0.33400000      -0.43130000      -2.14840000
H       -0.84170000      -2.72290000       1.03160000
H        1.17870000      -4.04830000       0.19590000
