14
Properties=species:S:1:pos:R:3 gdb_2666=T pbc="F F F"
C       -0.08370000       1.23610000      -0.03140000
C       -0.00000000      -0.29110000      -0.07780000
N       -1.09920000      -1.03000000      -0.68380000
C       -2.10130000      -0.43430000      -1.14410000
O       -3.16320000      -1.08510000      -1.72540000
C       -3.34260000      -2.42540000      -1.48360000
O       -4.17580000      -3.04290000      -2.06870000
H        0.81570000       1.63420000       0.44690000
H       -0.14610000       1.67220000      -1.03400000
H       -0.94700000       1.58120000       0.54720000
H        0.90910000      -0.59520000      -0.61170000
H        0.11820000      -0.68520000       0.93960000
H       -2.28620000       0.64010000      -1.18330000
H       -2.66300000      -2.80790000      -0.71180000
