13
Properties=species:S:1:pos:R:3 gdb_3725=T pbc="F F F"
C        0.03070000       1.54110000       0.07600000
C       -0.03460000       0.01120000      -0.06730000
C        0.66560000      -0.47890000      -1.29110000
N        0.05110000      -0.97050000      -2.36370000
N        1.08460000      -1.23260000      -3.15410000
N        2.26750000      -0.93770000      -2.63790000
N        2.01830000      -0.45470000      -1.44990000
H        1.06910000       1.88170000       0.10880000
H       -0.46260000       2.03480000      -0.76670000
H       -0.46590000       1.86030000       0.99660000
H        0.42810000      -0.45730000       0.80790000
H       -1.07390000      -0.32540000      -0.10950000
H        0.98300000      -1.63380000      -4.07430000
