13
Properties=species:S:1:pos:R:3 gdb_35150=T pbc="F F F"
C       -0.06930000      -1.21760000       0.02310000
C       -0.04860000      -0.01770000       0.02930000
C       -0.01780000       1.42230000       0.00570000
N        0.51060000       2.08320000       1.22500000
C        1.31940000       2.15820000       0.00830000
C        2.56720000       1.43610000      -0.00250000
N        3.57560000       0.87390000      -0.04950000
C       -1.08960000       2.07100000      -0.70980000
C       -1.98700000       2.62720000      -1.28340000
H       -0.08160000      -2.28000000       0.02650000
H        0.02300000       2.96530000       1.36790000
H        1.33600000       3.08590000      -0.55650000
H       -2.78330000       3.10760000      -1.79740000
