12
Properties=species:S:1:pos:R:3 gdb_21856=T pbc="F F F"
O        0.04270000       1.36280000       0.14710000
C       -0.03210000       0.01780000       0.04970000
C       -1.18840000      -0.66620000       0.05870000
C       -1.13320000      -2.11240000      -0.00400000
N       -2.17410000      -2.85240000      -0.04520000
N        0.17660000      -2.71880000      -0.01820000
N        1.23200000      -2.04790000      -0.02300000
N        1.15680000      -0.67590000      -0.04460000
H        0.81370000       1.69530000      -0.32790000
H       -2.14080000      -0.15760000       0.09520000
H       -1.88100000      -3.83070000      -0.08820000
H        2.04230000      -0.23980000       0.16110000
