16
Properties=species:S:1:pos:R:3 gdb_77964=T pbc="F F F"
O       -0.06870000       1.49980000      -0.10200000
C       -0.00780000       0.08970000      -0.01720000
C       -0.02600000      -0.60730000       1.38500000
C       -1.52570000      -0.15120000       1.52470000
O       -1.86610000       1.15010000       1.84300000
C       -1.37880000      -0.63240000       0.03230000
C       -0.60710000      -1.85310000       0.63880000
C        0.26810000      -2.63370000      -0.21790000
N        0.95850000      -3.27550000      -0.88820000
H        0.82620000       1.84990000      -0.04540000
H        0.71650000      -0.30500000      -0.73680000
H        0.75730000      -0.62380000       2.14310000
H       -2.13940000      -0.80530000       2.15100000
H       -1.34350000       1.73120000       1.27150000
H       -2.13520000      -0.67520000      -0.75060000
H       -1.21570000      -2.51550000       1.25810000
