14
Properties=species:S:1:pos:R:3 gdb_16103=T pbc="F F F"
N        0.06980000      -1.16210000      -0.12480000
C        0.05410000      -0.00950000      -0.02330000
C        0.01700000       1.42040000       0.08980000
N        0.35900000       2.25150000      -1.11000000
C        1.25860000       2.26870000       0.05010000
C        1.03600000       3.44250000       0.99720000
C       -0.38330000       3.23440000       1.48610000
C       -0.93230000       2.11370000       1.01640000
H        0.75800000       1.64490000      -1.82590000
H        2.23830000       1.81350000      -0.04040000
H        1.75630000       3.43130000       1.82440000
H        1.15490000       4.40010000       0.47730000
H       -0.88590000       3.95150000       2.12440000
H       -1.92820000       1.74260000       1.21770000
