20
Properties=species:S:1:pos:R:3 gdb_64433=T pbc="F F F"
C       -0.14900000       1.61990000      -0.12360000
C       -0.03070000       0.09310000      -0.01180000
C       -1.39600000      -0.58330000       0.01850000
O        0.65530000      -0.49880000      -1.07970000
C        1.94840000      -0.00800000      -1.39950000
C        3.00880000      -0.47670000      -0.41050000
N        2.91900000       0.02080000       0.95160000
C        1.84240000       0.07290000       1.60550000
O        0.55330000      -0.21940000       1.27700000
H        0.80880000       2.12120000       0.02870000
H       -0.53800000       1.89310000      -1.10800000
H       -0.83980000       1.98220000       0.64090000
H       -1.95180000      -0.33810000      -0.88930000
H       -1.26000000      -1.66540000       0.06840000
H       -1.96290000      -0.25260000       0.89070000
H        2.17600000      -0.41470000      -2.39020000
H        1.95350000       1.08590000      -1.48160000
H        2.98260000      -1.57530000      -0.37590000
H        3.99210000      -0.19690000      -0.80760000
H        1.88520000       0.34190000       2.66200000
