16
Properties=species:S:1:pos:R:3 gdb_49541=T pbc="F F F"
O        0.10630000       0.05020000       0.48100000
C        0.10180000       1.23860000       0.25220000
N        1.12040000       1.91640000      -0.37030000
C        2.59530000       1.69750000      -0.19600000
C        2.78850000       2.93490000      -1.11860000
C        1.66400000       3.29310000      -0.10700000
C        2.58040000       2.69790000       1.02650000
C        1.98760000       2.31300000       2.28550000
C        1.50510000       2.02270000       3.34760000
H       -0.78060000       1.89060000       0.41480000
H        3.04150000       0.70760000      -0.25020000
H        3.72770000       3.48080000      -1.02480000
H        2.46560000       2.80390000      -2.15010000
H        1.02600000       4.17480000      -0.06120000
H        3.52210000       3.23570000       1.17330000
H        1.07110000       1.74170000       4.27560000
