16
Properties=species:S:1:pos:R:3 gdb_4948=T pbc="F F F"
C        0.03960000       1.53010000      -0.09990000
C       -0.02430000       0.01610000       0.11340000
N       -1.37460000      -0.51600000       0.03220000
C       -2.14030000      -0.94280000       1.06530000
N       -3.34170000      -1.32880000       0.67380000
C       -3.34560000      -1.13660000      -0.67610000
O       -4.42920000      -1.43290000      -1.42770000
C       -2.14760000      -0.63260000      -1.11620000
H        1.07450000       1.87720000      -0.02210000
H       -0.33900000       1.80480000      -1.08820000
H       -0.55940000       2.05290000       0.65110000
H        0.59940000      -0.49990000      -0.62520000
H        0.36570000      -0.24640000       1.10120000
H       -1.77380000      -0.95640000       2.08110000
H       -5.09320000      -1.77000000      -0.81410000
H       -1.78190000      -0.36670000      -2.09190000
