17
Properties=species:S:1:pos:R:3 gdb_70506=T pbc="F F F"
C       -0.13990000       1.54510000       0.07470000
C        0.09120000       0.06260000       0.01030000
O       -0.69750000      -0.75830000       0.90790000
C        0.72250000      -0.76350000       1.06150000
C        1.40700000      -1.96080000       0.41260000
C        1.05570000      -1.79550000      -1.04460000
C        0.35790000      -0.67070000      -1.28170000
C       -0.09500000      -0.26820000      -2.61530000
O       -0.72860000       0.73320000      -2.86690000
H        0.69860000       2.08610000      -0.37540000
H       -1.04060000       1.81800000      -0.47860000
H       -0.24670000       1.85910000       1.11600000
H        1.09600000      -0.34920000       1.99460000
H        2.49380000      -1.94280000       0.56730000
H        1.04490000      -2.91390000       0.81710000
H        1.31970000      -2.52650000      -1.80250000
H        0.19900000      -0.97710000      -3.42220000
