16
Properties=species:S:1:pos:R:3 gdb_125755=T pbc="F F F"
C        0.03280000       1.55540000       0.10150000
C       -0.01620000       0.06140000       0.08880000
N       -0.21690000      -0.58170000      -1.03780000
O       -0.20340000      -1.93880000      -0.70920000
C        0.00780000      -2.07120000       0.61400000
C        0.01250000      -3.46090000       1.15220000
C       -1.40020000      -4.03670000       1.26620000
O       -1.79810000      -4.64130000       2.22410000
C        0.13100000      -0.84320000       1.18240000
H        0.99890000       1.91150000       0.47330000
H       -0.11880000       1.94360000      -0.90730000
H       -0.74260000       1.96620000       0.75610000
H        0.57130000      -4.11180000       0.46590000
H        0.48770000      -3.50360000       2.13370000
H       -2.03940000      -3.85780000       0.37490000
H        0.30340000      -0.61060000       2.22040000
