16
Properties=species:S:1:pos:R:3 gdb_21991=T pbc="F F F"
N        0.08850000       1.39080000       0.13370000
C       -0.02010000      -0.00260000       0.02720000
C       -1.17330000      -0.70880000       0.01040000
C       -1.17290000      -2.16020000       0.00220000
C        0.14390000      -2.78790000      -0.01880000
C        1.25610000      -2.03100000      -0.01240000
N        1.20460000      -0.65000000      -0.02000000
N       -2.31430000      -2.77610000      -0.00210000
O       -2.12210000      -4.18440000      -0.02400000
H        0.66360000       1.79840000      -0.59640000
H       -0.81800000       1.83950000       0.13760000
H       -2.12600000      -0.19390000      -0.01180000
H        0.21430000      -3.86450000      -0.04440000
H        2.25480000      -2.45100000      -0.01750000
H        2.01470000      -0.12740000       0.27200000
H       -3.03010000      -4.49960000      -0.03750000
