18
Properties=species:S:1:pos:R:3 gdb_25766=T pbc="F F F"
C       -0.05010000       1.53080000      -0.00020000
C        0.06730000       0.00990000       0.02840000
O        1.15530000      -0.53640000       0.05960000
C       -1.17200000      -0.76470000       0.01730000
C       -1.34180000      -2.14140000       0.03800000
C       -2.72760000      -2.42300000       0.01570000
C       -3.38400000      -3.77150000       0.02650000
C       -3.37350000      -1.19670000      -0.01850000
N       -2.43660000      -0.20760000      -0.01730000
H        0.95170000       1.96050000       0.00950000
H       -0.57600000       1.86900000      -0.90090000
H       -0.60620000       1.89940000       0.86990000
H       -0.52890000      -2.85060000       0.06660000
H       -3.11810000      -4.34290000       0.92280000
H       -4.47390000      -3.68150000       0.00360000
H       -3.08370000      -4.37370000      -0.83820000
H       -4.42800000      -0.96730000      -0.04330000
H       -2.63540000       0.77720000      -0.03930000
