16
Properties=species:S:1:pos:R:3 gdb_54714=T pbc="F F F"
C       -0.04900000       1.48260000      -0.11970000
C        0.01570000      -0.03240000      -0.02730000
O        0.97950000      -0.68310000      -0.37780000
N       -1.08610000      -0.62690000       0.56710000
C       -2.51930000      -0.39580000       0.23130000
C       -2.55400000      -1.52170000      -0.86590000
O       -3.68640000      -2.21220000      -0.27540000
C       -2.93290000      -1.75350000       0.88010000
C       -1.53500000      -2.00180000       0.23050000
H        0.96160000       1.87140000      -0.24520000
H       -0.64290000       1.77780000      -0.99260000
H       -0.51360000       1.92330000       0.76610000
H       -3.01510000       0.57270000       0.26620000
H       -2.46720000      -1.47030000      -1.95100000
H       -3.29650000      -1.97310000       1.88210000
H       -0.88910000      -2.87480000       0.25470000
