15
Properties=species:S:1:pos:R:3 gdb_48451=T pbc="F F F"
O       -0.44710000       0.53890000       0.67940000
C        0.23030000       0.93160000      -0.23310000
C        1.33630000       1.97870000      -0.07970000
C        1.33830000       2.64080000       1.33650000
C        2.39950000       1.62550000       1.84890000
C        2.64910000       1.20510000       0.40550000
O        3.50570000       0.63540000      -0.18820000
C        1.46720000       2.78900000      -1.26480000
C        1.57560000       3.44860000      -2.26440000
H        0.12680000       0.53740000      -1.26350000
H        1.71010000       3.66420000       1.29640000
H        0.37110000       2.60190000       1.83510000
H        3.27230000       2.00230000       2.38590000
H        1.95390000       0.80530000       2.42090000
H        1.67800000       4.03730000      -3.14250000
