20
Properties=species:S:1:pos:R:3 gdb_109857=T pbc="F F F"
C       -0.12820000       1.50560000       0.16340000
C        0.11440000       0.03750000      -0.00220000
N       -0.71340000      -0.97710000       0.70910000
C        0.76210000      -0.95230000       0.90640000
C        1.29080000      -1.76740000      -0.27780000
O        0.79800000      -3.08600000      -0.38520000
C        0.66480000      -0.68270000      -1.24750000
C       -0.29360000      -1.20000000      -2.31660000
O        0.33360000      -2.18030000      -3.12760000
H        0.72990000       2.08390000      -0.19500000
H       -1.00800000       1.83040000      -0.40370000
H       -0.29280000       1.76480000       1.21530000
H       -1.13760000      -0.52130000       1.51560000
H        1.18490000      -0.83390000       1.89730000
H        2.37830000      -1.82070000      -0.34340000
H       -0.11610000      -3.03580000      -0.06810000
H        1.46860000      -0.10170000      -1.71030000
H       -1.20430000      -1.58960000      -1.84020000
H       -0.59870000      -0.38760000      -2.98560000
H        0.56660000      -2.89880000      -2.52420000
