17
Properties=species:S:1:pos:R:3 gdb_45734=T pbc="F F F"
O       -0.11930000       0.05350000       0.12940000
C       -0.10510000       1.25330000       0.05860000
C       -1.32110000       2.18310000      -0.02820000
C       -0.68880000       3.54990000      -0.03610000
C        0.64580000       3.51190000       0.00720000
C        1.18130000       2.11870000       0.05480000
C        2.26440000       1.68840000       1.07880000
C        3.05020000       1.21420000      -0.15570000
O        2.05540000       1.76360000      -1.05070000
H       -1.91170000       1.96920000      -0.92810000
H       -1.98870000       2.00820000       0.82480000
H       -1.27880000       4.45890000      -0.07440000
H        1.30000000       4.37610000      -0.00260000
H        2.71380000       2.52160000       1.62160000
H        1.95210000       0.91210000       1.77780000
H        4.03340000       1.66960000      -0.31770000
H        3.13040000       0.12700000      -0.26080000
