15
Properties=species:S:1:pos:R:3 gdb_125693=T pbc="F F F"
C       -0.91810000       0.99920000       0.56690000
C       -0.23090000      -0.27680000       0.21350000
N       -0.17480000      -0.71690000      -1.04750000
N        0.54150000      -1.82800000      -0.97430000
N        0.96440000      -2.18090000       0.23180000
C        0.48210000      -1.20960000       1.00640000
N        0.78470000      -1.22400000       2.37290000
C       -0.05050000      -0.86150000       3.39610000
O       -1.15750000      -0.39010000       3.27670000
H       -0.21580000       1.71140000       1.01420000
H       -1.33570000       1.44750000      -0.33650000
H       -1.70740000       0.82770000       1.30060000
H        0.75610000      -2.37700000      -1.78990000
H        1.61420000      -1.74370000       2.62090000
H        0.42870000      -1.04450000       4.37700000
