15
Properties=species:S:1:pos:R:3 gdb_123933=T pbc="F F F"
C       -0.02370000       1.43180000       0.08080000
C        1.42030000       1.96560000       0.02040000
O        2.23150000       1.43170000       1.09210000
C        1.96600000       0.13750000       1.26880000
C        0.93670000      -0.60000000       0.76030000
N       -0.11120000      -0.03060000      -0.00180000
C        1.17240000      -1.87870000       1.32470000
N        2.24570000      -1.90500000       2.08260000
O        2.75420000      -0.58180000       2.06040000
H       -0.47280000       1.75200000       1.02830000
H       -0.60430000       1.87840000      -0.73070000
H        1.88980000       1.69820000      -0.93450000
H        1.45170000       3.04980000       0.14290000
H       -0.10170000      -0.34730000      -0.96560000
H        0.60400000      -2.79030000       1.20040000
