15
Properties=species:S:1:pos:R:3 gdb_75764=T pbc="F F F"
C        0.25640000       1.35150000      -0.15070000
C       -0.06720000      -0.11860000       0.03590000
O        0.74740000      -0.97780000      -0.84530000
C        1.45980000      -1.48580000       0.22060000
N        2.50780000      -2.16660000       0.27470000
C        0.60140000      -0.82740000       1.28100000
O        1.23040000      -0.04080000       2.23950000
C       -1.48760000      -0.41090000      -0.14850000
N       -2.61530000      -0.63370000      -0.26410000
H        1.32010000       1.52140000       0.02620000
H        0.00300000       1.66950000      -1.16460000
H       -0.31330000       1.95140000       0.56330000
H        2.87500000      -2.39400000      -0.65050000
H       -0.09700000      -1.51750000       1.76440000
H        2.18120000      -0.07940000       2.08550000
