18
Properties=species:S:1:pos:R:3 gdb_67763=T pbc="F F F"
C       -0.09340000       1.57940000       0.01630000
C       -0.00370000       0.06290000       0.00160000
C        0.70610000      -0.57930000      -1.18860000
C        0.05310000      -1.68540000      -1.56600000
C       -1.18800000      -1.81790000      -0.79090000
C       -1.18590000      -1.83270000       0.76130000
C        0.05740000      -1.71510000       1.53530000
C        0.70940000      -0.60190000       1.17740000
N       -1.37410000      -0.58920000      -0.00270000
H        0.90520000       2.02990000       0.01820000
H       -0.63180000       1.93750000      -0.86600000
H       -0.62770000       1.92070000       0.90760000
H        1.67950000      -0.25330000      -1.53650000
H        0.37290000      -2.40010000      -2.31350000
H       -2.07590000      -2.23490000      -1.26080000
H       -2.07250000      -2.25870000       1.22560000
H        0.37920000      -2.44390000       2.26820000
H        1.68370000      -0.28260000       1.52880000
