21
Properties=species:S:1:pos:R:3 gdb_72922=T pbc="F F F"
C       -0.07420000       1.51390000      -0.02820000
C        0.02820000      -0.00190000      -0.03450000
C       -1.19360000      -0.76320000       0.53310000
O       -0.37650000      -1.47880000       1.48660000
C        0.81590000      -0.77440000       1.06890000
C        1.80680000      -1.57840000       0.21060000
C        0.89790000      -2.11590000      -0.92790000
C        0.74500000      -0.60410000      -1.26750000
C        2.23780000      -0.47770000      -0.80950000
H        0.87380000       1.99250000      -0.29250000
H       -0.82520000       1.85160000      -0.75270000
H       -0.37470000       1.88830000       0.95600000
H       -1.92380000      -0.11860000       1.03960000
H       -1.72740000      -1.43640000      -0.14910000
H        1.27760000      -0.22560000       1.89670000
H        2.52890000      -2.21270000       0.72490000
H        1.47070000      -2.64540000      -1.69210000
H        0.01940000      -2.69710000      -0.64700000
H        0.41320000      -0.26800000      -2.25120000
H        2.58670000       0.48450000      -0.42260000
H        2.94210000      -0.85480000      -1.55380000
