17
Properties=species:S:1:pos:R:3 gdb_82002=T pbc="F F F"
C       -0.09000000       1.56300000      -0.08610000
C        0.00140000       0.04740000      -0.04190000
C        0.70860000      -0.65510000      -1.21000000
O        2.04790000      -0.15110000      -1.25510000
C        1.76150000      -1.20800000      -0.34460000
C        1.12780000      -0.58640000       0.91610000
O        1.99580000       0.30550000       1.57670000
C        0.57890000      -1.58950000       1.81930000
C        0.12710000      -2.39820000       2.58660000
H        0.88450000       1.99680000      -0.31650000
H       -0.80790000       1.88330000      -0.84880000
H       -0.42550000       1.96390000       0.87600000
H       -0.96550000      -0.41390000       0.17560000
H        0.29070000      -1.04770000      -2.12920000
H        2.35380000      -2.11310000      -0.40720000
H        1.62180000       0.49940000       2.44280000
H       -0.26840000      -3.11720000       3.26130000
