16
Properties=species:S:1:pos:R:3 gdb_127714=T pbc="F F F"
C        0.00640000       1.45020000      -0.01900000
N        0.00420000       0.00510000       0.06660000
N       -0.03320000      -0.73840000      -1.06820000
N       -0.02670000      -1.98640000      -0.72500000
C        0.01490000      -2.07060000       0.64480000
C        0.03250000      -3.29130000       1.35610000
C        0.04810000      -4.31850000       1.98390000
C        0.03540000      -0.78500000       1.16510000
C        0.08060000      -0.28830000       2.56700000
H        0.91240000       1.86500000       0.43220000
H       -0.02390000       1.70850000      -1.07730000
H       -0.86900000       1.87080000       0.48450000
H        0.06120000      -5.23180000       2.52520000
H        0.97570000       0.31510000       2.75700000
H       -0.79140000       0.33000000       2.80880000
H        0.09370000      -1.13970000       3.25020000
