18
Properties=species:S:1:pos:R:3 gdb_92675=T pbc="F F F"
C        0.00680000       1.62600000       0.00830000
C        0.12590000       0.10110000       0.02610000
C        0.85790000      -0.52230000      -1.19400000
O        1.83300000       0.40870000      -1.63700000
C        1.52400000      -1.80900000      -0.63900000
C        1.66990000      -1.52170000       0.82960000
C        0.91260000      -0.48090000       1.19870000
C        0.78460000       0.01450000       2.52430000
N        0.65230000       0.44290000       3.59290000
H        0.99020000       2.09560000      -0.04270000
H       -0.57160000       1.95600000      -0.85940000
H       -0.50300000       1.97630000       0.91050000
H       -0.88730000      -0.32430000       0.06170000
H        0.14870000      -0.74670000      -2.00220000
H        2.27690000       0.03480000      -2.40400000
H        0.88800000      -2.69200000      -0.79660000
H        2.47870000      -2.01610000      -1.13620000
H        2.28610000      -2.10820000       1.50020000
