23
Properties=species:S:1:pos:R:3 gdb_41812=T pbc="F F F"
C       -0.04250000       1.38530000      -0.41200000
C        1.20550000       2.03460000       0.24780000
C        2.01140000       0.88800000       0.91570000
C        1.50740000      -0.37420000       0.19840000
C        0.00450000      -0.12280000      -0.04890000
C       -0.86940000      -0.48040000       1.16620000
C       -0.54810000       0.27000000       2.46720000
C        0.89110000       0.09140000       2.96520000
O        1.86970000       0.89780000       2.33720000
H       -0.97810000       1.84880000      -0.08390000
H       -0.00110000       1.50720000      -1.49860000
H        1.82210000       2.53690000      -0.50400000
H        0.95450000       2.78070000       1.00510000
H        3.08570000       1.02860000       0.75920000
H        2.02900000      -0.43920000      -0.76390000
H        1.72340000      -1.29930000       0.74050000
H       -0.34880000      -0.72800000      -0.89050000
H       -1.92090000      -0.30630000       0.90520000
H       -0.77580000      -1.55860000       1.35630000
H       -0.75480000       1.34260000       2.36670000
H       -1.22040000      -0.09860000       3.25210000
H        0.95060000       0.37970000       4.02000000
H        1.16350000      -0.97610000       2.91390000
