17
Properties=species:S:1:pos:R:3 gdb_30755=T pbc="F F F"
C       -0.60100000       0.98230000      -0.05620000
O        0.58130000       0.18900000       0.09800000
C        0.93600000      -0.51250000      -1.01180000
C        0.71280000      -1.83360000      -1.30460000
O        0.00380000      -2.76000000      -0.58590000
C        1.34390000      -2.11920000      -2.55280000
N        1.24500000      -3.35580000      -3.21650000
C        1.93810000      -0.95170000      -2.97600000
N        1.65310000       0.04490000      -2.05000000
H       -0.46220000       1.75230000      -0.82420000
H       -1.45910000       0.35820000      -0.33220000
H       -0.78600000       1.46010000       0.90840000
H       -0.12000000      -2.40600000       0.30160000
H        1.05650000      -4.10340000      -2.55960000
H        2.07780000      -3.58230000      -3.74540000
H        2.50220000      -0.73770000      -3.86840000
H        2.20210000       0.88030000      -1.93890000
