19
Properties=species:S:1:pos:R:3 gdb_127425=T pbc="F F F"
C       -0.07810000       1.39840000      -0.05590000
N       -0.03610000      -0.04090000       0.02380000
N        0.02150000      -0.79400000      -1.11430000
C        0.05210000      -2.05520000      -0.69430000
C        0.10160000      -3.18580000      -1.67160000
C        0.03860000      -2.12720000       0.72260000
N        0.06910000      -3.23000000       1.62620000
C       -0.01080000      -0.80680000       1.13990000
N       -0.11760000      -0.29050000       2.43110000
H        0.91990000       1.84710000       0.03070000
H       -0.49870000       1.66890000      -1.02490000
H       -0.71400000       1.79010000       0.74300000
H        0.99680000      -3.80390000      -1.53200000
H       -0.76460000      -3.85000000      -1.56570000
H        0.11160000      -2.79480000      -2.69120000
H       -0.75900000      -3.81210000       1.53970000
H        0.86670000      -3.83410000       1.45270000
H       -0.04950000      -1.06070000       3.08940000
H        0.59050000       0.40120000       2.65140000
