17
Properties=species:S:1:pos:R:3 gdb_64537=T pbc="F F F"
C       -0.08090000       1.62730000       0.06580000
C        0.06380000       0.11130000       0.08680000
C       -1.12960000      -0.62630000      -0.46370000
O       -2.12890000      -0.10980000      -0.89240000
C        1.31110000      -0.72250000      -0.21270000
C        2.62250000      -0.15360000       0.41690000
O        2.34450000       1.05770000       1.12580000
C        2.03150000      -0.19170000       1.74880000
C        0.69680000      -0.76210000       1.17190000
H        0.69400000       2.09810000      -0.53920000
H       -1.05790000       1.86760000      -0.36140000
H       -0.02010000       2.05220000       1.06780000
H       -1.02440000      -1.73580000      -0.44860000
H        1.31680000      -1.50040000      -0.96660000
H        3.63210000      -0.31780000       0.06220000
H        2.44990000      -0.39390000       2.72660000
H        0.15850000      -1.57490000       1.64400000
