22
Properties=species:S:1:pos:R:3 gdb_70903=T pbc="F F F"
C       -0.05470000       1.53110000       0.02580000
C       -0.01720000       0.03450000      -0.05800000
C        0.75270000      -0.78550000      -1.10540000
C       -0.21850000      -1.98580000      -0.83320000
C       -0.81800000      -2.68510000      -2.03630000
C        0.40690000      -2.88860000       0.24000000
C        0.62820000      -1.90410000       1.41360000
N       -0.26310000      -0.74510000       1.17100000
C       -1.09640000      -1.00130000       0.00250000
H        0.91750000       1.93000000       0.33990000
H       -0.29750000       1.97280000      -0.94700000
H       -0.80160000       1.85470000       0.75520000
H        0.60550000      -0.36800000      -2.10610000
H        1.82520000      -0.95330000      -0.94850000
H       -0.05290000      -3.23120000      -2.59950000
H       -1.58410000      -3.40770000      -1.73140000
H       -1.28630000      -1.97040000      -2.72170000
H       -0.28890000      -3.68840000       0.52120000
H        1.33550000      -3.35870000      -0.10130000
H        0.36410000      -2.34540000       2.37890000
H        1.66600000      -1.56290000       1.48530000
H       -2.17810000      -0.93310000       0.05650000
