14
Properties=species:S:1:pos:R:3 gdb_13049=T pbc="F F F"
N        0.02030000       1.20420000      -0.03710000
C       -0.07550000      -0.03590000      -0.23480000
O       -1.09260000      -0.71840000       0.35710000
C       -1.08990000      -2.11550000       0.17390000
C       -2.42390000      -2.77770000       0.55410000
O       -2.55990000      -3.29360000      -0.81070000
C       -1.41620000      -2.64650000      -1.21940000
N       -0.87120000      -2.53740000      -2.34080000
H        0.81700000       1.57570000      -0.55060000
H        0.56880000      -0.66260000      -0.86020000
H       -0.20340000      -2.57610000       0.62330000
H       -2.38690000      -3.59070000       1.28070000
H       -3.21620000      -2.06530000       0.78990000
H       -1.39850000      -3.01340000      -3.07470000
