18
Properties=species:S:1:pos:R:3 gdb_6389=T pbc="F F F"
C        0.01200000       1.57160000       0.05420000
C       -0.02760000       0.03760000       0.00410000
C       -1.45270000      -0.50890000      -0.00500000
O       -2.06060000      -0.10410000      -1.22940000
N        0.66530000      -0.50290000      -1.16020000
C        2.03760000      -0.54830000      -1.19570000
N        2.56130000      -0.88140000      -2.44280000
O        2.74430000      -0.30600000      -0.23260000
H        1.04970000       1.91150000       0.04970000
H       -0.51250000       2.00100000      -0.80380000
H       -0.46710000       1.94010000       0.96770000
H        0.48680000      -0.35690000       0.88500000
H       -1.42400000      -1.60520000       0.07370000
H       -2.00220000      -0.11300000       0.86180000
H       -2.93430000      -0.50050000      -1.28340000
H        0.15550000      -0.42600000      -2.02760000
H        2.01010000      -1.49210000      -3.02760000
H        3.53430000      -1.14250000      -2.38700000
