20
Properties=species:S:1:pos:R:3 gdb_31128=T pbc="F F F"
C        0.04480000       1.58770000      -0.25620000
C       -0.01350000       0.06970000      -0.00020000
C       -1.41010000      -0.47890000       0.05120000
C       -2.15070000      -0.84260000       1.16430000
C       -1.80720000      -0.83290000       2.61820000
N       -3.38220000      -1.25370000       0.72600000
C       -3.46250000      -1.17310000      -0.65100000
C       -2.25310000      -0.69320000      -1.08430000
O       -1.94030000      -0.45620000      -2.39610000
H        1.07920000       1.94240000      -0.31740000
H       -0.46050000       1.84740000      -1.19230000
H       -0.45900000       2.13390000       0.54700000
H        0.56310000      -0.44590000      -0.78400000
H        0.51210000      -0.16070000       0.93310000
H       -2.40240000      -0.10300000       3.18240000
H       -1.96710000      -1.81330000       3.08450000
H       -0.75610000      -0.57230000       2.76070000
H       -4.12130000      -1.57950000       1.32270000
H       -4.34750000      -1.45780000      -1.19350000
H       -0.99230000      -0.30670000      -2.45720000
