21
Properties=species:S:1:pos:R:3 gdb_106470=T pbc="F F F"
C        0.08990000       1.53390000       0.17110000
C       -0.09530000       0.02650000      -0.04840000
C        0.67160000      -0.50380000      -1.23810000
C        2.23460000      -0.40810000      -1.40180000
C        2.01720000      -1.53090000      -2.45360000
C        0.87230000      -2.03730000      -1.53360000
C        1.23620000      -0.79130000      -3.55540000
C        0.24430000      -0.05190000      -2.63330000
O       -0.65560000       0.68700000      -2.93730000
H        1.14260000       1.78400000       0.34240000
H       -0.25850000       2.09570000      -0.69890000
H       -0.47690000       1.87150000       1.04390000
H        0.21230000      -0.52120000       0.85120000
H       -1.16060000      -0.18980000      -0.19780000
H        2.66680000       0.54030000      -1.73430000
H        2.74710000      -0.76130000      -0.50330000
H        2.83050000      -2.18430000      -2.76640000
H        1.23740000      -2.56230000      -0.64720000
H        0.04400000      -2.59130000      -1.98590000
H        1.83990000      -0.08670000      -4.13640000
H        0.71160000      -1.45020000      -4.25440000
