22
Properties=species:S:1:pos:R:3 gdb_10392=T pbc="F F F"
C       -0.53920000       1.18510000       0.34570000
C       -0.03690000      -0.24810000       0.15060000
C        0.96910000      -0.70080000       1.21770000
C        0.32960000      -0.98640000       2.60210000
C        0.32160000      -2.50000000       2.26080000
C        1.32860000      -2.21850000       1.11280000
O        2.06130000       0.19420000       1.34680000
C        2.91060000       0.28460000       0.22400000
H        0.29020000       1.89720000       0.32980000
H       -1.24510000       1.46280000      -0.44290000
H       -1.05150000       1.30280000       1.30620000
H       -0.88210000      -0.94740000       0.15890000
H        0.41990000      -0.35060000      -0.84230000
H        1.04280000      -0.74440000       3.39320000
H       -0.62640000      -0.50670000       2.82500000
H        0.64700000      -3.18560000       3.04560000
H       -0.64840000      -2.84120000       1.89000000
H        1.15960000      -2.71500000       0.15340000
H        2.36100000      -2.39110000       1.42850000
H        3.77440000       0.88190000       0.52740000
H        3.26680000      -0.70310000      -0.10420000
H        2.43190000       0.78010000      -0.63280000
