18
Properties=species:S:1:pos:R:3 gdb_54345=T pbc="F F F"
N        0.06940000       1.22990000       0.48370000
C       -0.03990000       0.12260000      -0.29040000
O        0.82150000      -0.22650000      -1.07770000
C       -1.33590000      -0.69660000      -0.12690000
C       -1.93870000      -1.04010000      -1.54550000
C       -1.24950000      -2.42580000      -1.49710000
C       -0.98920000      -2.23050000       0.01670000
C       -2.26350000      -0.15700000       0.84800000
C       -3.04110000       0.28310000       1.65580000
H        0.90290000       1.78800000       0.40220000
H       -0.65760000       1.49460000       1.12630000
H       -3.02740000      -1.09740000      -1.49470000
H       -1.64480000      -0.36510000      -2.35020000
H       -1.86010000      -3.28540000      -1.78100000
H       -0.32090000      -2.43290000      -2.06680000
H        0.01550000      -2.44680000       0.38160000
H       -1.72440000      -2.73120000       0.64930000
H       -3.73820000       0.65720000       2.36450000
