18
Properties=species:S:1:pos:R:3 gdb_103208=T pbc="F F F"
O       -0.11920000       1.47900000      -0.08760000
C        0.04090000       0.06390000       0.01480000
C       -1.36360000      -0.51580000       0.10650000
O       -2.11220000      -0.08470000      -1.01300000
C       -1.57280000      -2.00360000       0.29110000
C       -1.57660000      -2.31980000       1.75420000
C       -1.37750000      -1.04200000       2.55180000
C       -2.19440000      -0.40240000       1.41700000
N       -2.82490000      -1.80490000       1.09970000
H        0.71080000       1.86510000      -0.37970000
H        0.52610000      -0.34730000      -0.88230000
H        0.64960000      -0.20480000       0.88760000
H       -1.90380000       0.85380000      -1.11010000
H       -1.51590000      -2.76710000      -0.47670000
H       -1.51490000      -3.34380000       2.10650000
H       -1.95600000      -1.08080000       3.47890000
H       -0.37110000      -0.66940000       2.76730000
H       -2.84460000       0.45590000       1.57040000
