19
Properties=species:S:1:pos:R:3 gdb_109981=T pbc="F F F"
C        0.71910000       1.47250000       0.34230000
N       -0.13330000       0.61160000      -0.46680000
C        0.54400000      -0.24160000      -1.39010000
C        1.20540000      -1.61620000      -1.00980000
C        0.89400000      -2.21020000       0.34950000
O        0.46160000      -2.27400000      -2.07890000
C       -0.33130000      -1.10910000      -2.34420000
C       -1.72890000      -1.27270000      -1.92230000
N       -2.82000000      -1.39790000      -1.56150000
H        1.43250000       0.93820000       0.99160000
H        1.29720000       2.13130000      -0.31560000
H        0.09200000       2.10440000       0.97690000
H       -0.80010000       0.10400000       0.10230000
H        1.24060000       0.36830000      -1.97230000
H        2.28000000      -1.67330000      -1.21840000
H       -0.17100000      -2.13960000       0.58970000
H        1.16920000      -3.26900000       0.36050000
H        1.46550000      -1.70160000       1.13300000
H       -0.31190000      -0.82490000      -3.40180000
