18
Properties=species:S:1:pos:R:3 gdb_52268=T pbc="F F F"
N       -0.00510000       1.18020000      -0.18820000
C        0.00720000      -0.05910000       0.00540000
O        1.02800000      -0.90020000       0.39210000
C        0.12520000      -2.05110000       0.41990000
C       -1.04330000      -1.15480000      -0.04990000
C       -2.25240000      -0.98910000       0.86940000
C       -3.20610000       0.11520000       0.37690000
C       -4.28970000       0.41040000       1.38650000
O       -5.47250000       0.36860000       1.16710000
H        0.91250000       1.59780000      -0.02430000
H        0.45940000      -2.82850000      -0.27060000
H        0.03940000      -2.45150000       1.43380000
H       -1.36470000      -1.36880000      -1.07340000
H       -2.78920000      -1.94300000       0.93650000
H       -1.90420000      -0.75060000       1.88280000
H       -2.62230000       1.03390000       0.22600000
H       -3.67550000      -0.15450000      -0.57370000
H       -3.90590000       0.68230000       2.39910000
