19
Properties=species:S:1:pos:R:3 gdb_95392=T pbc="F F F"
C       -0.15070000       1.54700000       0.06030000
C        0.03320000       0.01540000       0.00470000
C        0.80230000      -0.46470000      -1.23580000
C        2.27150000      -0.02960000      -1.18650000
N        2.96560000      -0.31600000       0.05760000
C        2.29430000      -0.48800000       1.13500000
N        2.90170000      -0.71190000       2.33950000
C        0.77680000      -0.43520000       1.24550000
O        0.22960000      -0.72230000       2.28880000
H        0.80750000       2.07410000       0.10250000
H       -0.68770000       1.89280000      -0.82830000
H       -0.72890000       1.82930000       0.94420000
H       -0.95830000      -0.44740000       0.04520000
H        0.76050000      -1.56060000      -1.27740000
H        0.32390000      -0.09310000      -2.14950000
H        2.82620000      -0.51720000      -1.99680000
H        2.35640000       1.04890000      -1.38850000
H        3.86870000      -0.99020000       2.32290000
H        2.31000000      -1.06990000       3.07220000
