20
Properties=species:S:1:pos:R:3 gdb_11783=T pbc="F F F"
C        0.07160000       1.53200000      -0.13830000
C        0.00330000       0.01810000       0.09850000
C       -1.40530000      -0.53860000       0.05200000
C       -2.32120000      -0.46580000      -1.22850000
C       -3.11100000      -1.56960000      -0.44830000
C       -1.70690000      -2.08280000       0.01850000
C       -3.53680000      -0.77550000       0.79580000
C       -2.42990000      -0.10510000       1.12260000
H        1.10320000       1.89360000      -0.08850000
H       -0.32760000       1.79550000      -1.12340000
H       -0.51060000       2.08080000       0.60940000
H        0.61720000      -0.49510000      -0.65270000
H        0.45070000      -0.22330000       1.07230000
H       -2.83920000       0.47510000      -1.42840000
H       -1.82630000      -0.83930000      -2.13200000
H       -3.83990000      -2.21870000      -0.93210000
H       -1.15110000      -2.61060000      -0.76470000
H       -1.65780000      -2.62650000       0.96520000
H       -4.50900000      -0.79060000       1.26760000
H       -2.24400000       0.57990000       1.93820000
