21
Properties=species:S:1:pos:R:3 gdb_97862=T pbc="F F F"
O       -0.04840000       1.40020000       1.10330000
C        0.05930000       0.37280000       0.12310000
C       -1.24000000      -0.25490000      -0.07710000
C       -2.30740000      -0.78410000      -0.25410000
C       -3.59340000      -1.42900000      -0.47400000
C       -4.12600000      -1.34050000      -1.92420000
C       -5.25260000      -2.39530000      -1.98000000
C       -4.92070000      -3.43720000      -0.86820000
C       -3.60990000      -2.95380000      -0.21080000
H        0.82650000       1.78860000       1.20630000
H        0.41680000       0.77860000      -0.83780000
H        0.78780000      -0.39480000       0.43290000
H       -4.33300000      -0.95960000       0.19110000
H       -4.46110000      -0.33380000      -2.18630000
H       -3.31360000      -1.60260000      -2.61100000
H       -6.22250000      -1.92770000      -1.78410000
H       -5.32230000      -2.85440000      -2.96970000
H       -5.72680000      -3.47190000      -0.12870000
H       -4.81950000      -4.45010000      -1.26670000
H       -2.73970000      -3.40240000      -0.70250000
H       -3.54310000      -3.19580000       0.85280000
