17
Properties=species:S:1:pos:R:3 gdb_23277=T pbc="F F F"
O       -0.17160000       1.30800000      -0.44460000
N        0.01160000      -0.09460000      -0.35410000
C       -1.07420000      -0.65970000      -0.00620000
C       -1.18960000      -2.12710000       0.15910000
N       -1.58450000      -2.47980000       1.55410000
C       -2.60870000      -2.42600000       0.50210000
C       -3.41810000      -1.13610000       0.54200000
C       -2.41860000       0.01680000       0.26540000
O       -2.37410000       0.91020000       1.36140000
H        0.70540000       1.61450000      -0.69700000
H       -0.54500000      -2.79590000      -0.39830000
H       -1.31530000      -3.44770000       1.71890000
H       -3.07970000      -3.34750000       0.17550000
H       -4.20590000      -1.15710000      -0.21600000
H       -3.88340000      -0.98420000       1.51870000
H       -2.70580000       0.55570000      -0.65090000
H       -1.67830000       1.54730000       1.15750000
