16
Properties=species:S:1:pos:R:3 gdb_51507=T pbc="F F F"
O        0.01460000      -0.07770000       0.60890000
C       -0.03460000       1.08840000       0.28330000
N        1.00240000       1.79360000      -0.25300000
C        2.33720000       1.24390000      -0.33750000
C        2.95110000       1.15130000      -1.71360000
C        4.21590000       1.57640000      -1.73450000
C        4.68630000       2.06740000      -0.38930000
C        3.38730000       2.09190000       0.42580000
O        3.17610000       2.71700000       1.42850000
H       -0.94940000       1.70480000       0.37160000
H        0.88490000       2.78720000      -0.37900000
H        2.26910000       0.25260000       0.13280000
H        2.40160000       0.74900000      -2.55600000
H        4.85850000       1.56960000      -2.60710000
H        5.40050000       1.38100000       0.08730000
H        5.16300000       3.05370000      -0.39830000
