19
Properties=species:S:1:pos:R:3 gdb_68193=T pbc="F F F"
C       -0.05390000       1.52530000       0.03700000
C        0.06280000       0.02360000       0.03490000
C        1.01250000      -0.77090000      -0.90560000
C        0.70820000      -1.91350000       0.10530000
C        0.68950000      -0.80850000       1.19990000
C       -0.81300000      -2.10170000      -0.12180000
N       -1.22720000      -0.67070000      -0.24020000
C       -1.14050000      -2.87420000      -1.32740000
N       -1.38400000      -3.50580000      -2.26400000
H        0.92240000       1.99100000       0.19830000
H       -0.45730000       1.87960000      -0.91640000
H       -0.72350000       1.86860000       0.83460000
H        0.70190000      -0.89810000      -1.94460000
H        2.04660000      -0.42890000      -0.84390000
H        1.30830000      -2.81860000       0.17980000
H        1.69530000      -0.48360000       1.47450000
H        0.08300000      -0.97130000       2.09730000
H       -1.28190000      -2.60480000       0.73140000
H       -1.90620000      -0.45020000       0.48280000
