19
Properties=species:S:1:pos:R:3 gdb_108906=T pbc="F F F"
O        0.06850000       1.39220000       0.19250000
C        0.04990000       0.00210000      -0.06750000
C       -1.35560000      -0.50280000      -0.04520000
C       -2.45760000       0.21290000       0.18070000
C       -3.72210000      -0.61850000       0.07300000
C       -3.16850000      -2.07280000       0.02690000
C       -1.67450000      -1.94660000      -0.35980000
C       -4.64170000      -0.40650000       1.26010000
O       -5.76570000       0.01910000       1.20560000
H        0.98340000       1.68700000       0.18780000
H        0.49950000      -0.23310000      -1.04930000
H        0.64230000      -0.55690000       0.67920000
H       -2.46930000       1.27730000       0.37700000
H       -4.29580000      -0.35900000      -0.82540000
H       -3.24740000      -2.52040000       1.02480000
H       -3.73870000      -2.70750000      -0.65440000
H       -1.50830000      -2.15210000      -1.42680000
H       -1.04170000      -2.65440000       0.18930000
H       -4.17430000      -0.68210000       2.23640000
