16
Properties=species:S:1:pos:R:3 gdb_56733=T pbc="F F F"
C       -0.30720000       1.57160000      -0.42090000
C        0.07300000       0.10130000      -0.13940000
C       -1.08980000      -0.66080000       0.31790000
N       -2.00950000      -1.26180000       0.67650000
C        0.72920000      -0.53720000      -1.36290000
C        0.32490000      -1.84370000      -1.93100000
O       -0.04670000      -0.62530000      -2.56140000
C        2.15180000      -0.12600000      -1.61530000
O        2.84420000       0.44080000      -0.80990000
H        0.59130000       2.13970000      -0.67110000
H       -1.01090000       1.62700000      -1.25430000
H       -0.76890000       2.02180000       0.46020000
H        0.82490000       0.08070000       0.65820000
H        1.05400000      -2.44620000      -2.47130000
H       -0.47830000      -2.38670000      -1.43910000
H        2.51000000      -0.39640000      -2.63170000
