18
Properties=species:S:1:pos:R:3 gdb_111024=T pbc="F F F"
C        0.17370000       1.52860000       0.13850000
N       -0.24480000       0.17050000      -0.19270000
C        0.53430000      -0.47120000      -1.20050000
C        1.88260000      -1.27940000      -0.98680000
C        1.06790000      -2.40580000      -0.30450000
C        0.28440000      -1.97060000      -1.57850000
N        1.62460000      -2.00950000      -2.29360000
C       -0.91280000      -2.55620000      -2.13330000
N       -1.88560000      -3.00420000      -2.56840000
H        1.19970000       1.60740000       0.53480000
H        0.11320000       2.15510000      -0.75800000
H       -0.51230000       1.94610000       0.88030000
H       -0.33780000      -0.39250000       0.64330000
H        0.57840000       0.18180000      -2.08060000
H        2.87840000      -0.92190000      -0.72820000
H        1.50680000      -3.40110000      -0.36310000
H        0.61190000      -2.20640000       0.66520000
H        1.60720000      -1.33660000      -3.06840000
