17
Properties=species:S:1:pos:R:3 gdb_35720=T pbc="F F F"
N       -0.17590000      -1.22310000      -0.03640000
C       -0.09920000      -0.07120000       0.02170000
C       -0.02860000       1.37650000       0.10060000
C        0.16360000       1.99660000       1.51000000
O        1.42410000       2.58260000       1.13380000
C        1.34090000       2.07350000      -0.21480000
C        2.52980000       1.23130000      -0.59610000
C        3.87620000       1.64900000      -0.13500000
N        3.23830000       0.43770000       0.41150000
H       -0.86420000       1.80430000      -0.45630000
H       -0.57930000       2.75570000       1.77580000
H        0.26670000       1.27820000       2.32880000
H        1.21580000       2.89020000      -0.93810000
H        2.42680000       0.74430000      -1.56420000
H        4.74260000       1.47220000      -0.76500000
H        3.93520000       2.52600000       0.50330000
H        2.86270000       0.66580000       1.33050000
