22
Properties=species:S:1:pos:R:3 gdb_109567=T pbc="F F F"
C       -0.10770000       1.54470000       0.13050000
C        0.07980000       0.02510000       0.13070000
C        0.70830000      -0.51500000      -1.14940000
N        2.14590000      -0.21220000      -1.39030000
C        2.47190000       0.78570000      -2.38980000
C        2.48010000      -1.62360000      -1.72120000
C        3.71570000      -2.21530000      -1.06220000
C        1.09120000      -2.00180000      -1.18780000
O        0.55520000      -3.02120000      -0.86710000
H        0.85530000       2.05910000       0.05390000
H       -0.73280000       1.86990000      -0.70890000
H       -0.58910000       1.87980000       1.05430000
H        0.70730000      -0.27190000       0.97840000
H       -0.88680000      -0.47680000       0.26080000
H        0.07390000      -0.26690000      -2.02090000
H        2.13230000       1.77310000      -2.06390000
H        3.55750000       0.83540000      -2.52300000
H        2.01610000       0.57510000      -3.37660000
H        2.50540000      -1.79940000      -2.81280000
H        3.69400000      -2.04390000       0.01720000
H        3.75940000      -3.29320000      -1.24590000
H        4.62830000      -1.76310000      -1.46360000
