14
Properties=species:S:1:pos:R:3 gdb_51380=T pbc="F F F"
N        0.07350000       1.11210000       0.24990000
C       -0.04430000      -0.12920000       0.26850000
O        0.85050000      -1.12580000       0.69280000
C       -0.03270000      -2.14480000       0.17960000
C       -1.32940000      -2.10640000       0.91200000
O       -1.45290000      -1.68810000       2.24220000
C       -0.58280000      -2.21010000       3.15070000
O       -0.64130000      -1.93430000       4.30700000
C       -1.08140000      -1.10080000      -0.19830000
H        0.96570000       1.41710000       0.64100000
H        0.41220000      -2.97200000      -0.35690000
H       -2.04180000      -2.88130000       0.63770000
H        0.14930000      -2.89700000       2.69310000
H       -1.73500000      -0.98890000      -1.05050000
