16
Properties=species:S:1:pos:R:3 gdb_29294=T pbc="F F F"
N        0.03080000       1.24220000       0.58930000
C       -0.07230000      -0.05810000       0.10700000
C       -1.05670000      -0.67180000      -0.59780000
O       -0.68270000      -2.00260000      -0.75200000
C        0.50070000      -2.08760000      -0.12540000
N        0.92390000      -0.97980000       0.40900000
N        1.15310000      -3.30310000      -0.19260000
C        1.98200000      -3.69780000       0.93750000
C        0.70270000      -4.41030000       0.66110000
H        0.99630000       1.50360000       0.73860000
H       -0.44570000       1.92970000       0.02260000
H       -1.99960000      -0.38300000      -1.02410000
H        2.92870000      -4.15650000       0.67040000
H        2.01230000      -3.01840000       1.78370000
H       -0.13440000      -4.21920000       1.32660000
H        0.70470000      -5.38430000       0.18300000
