16
Properties=species:S:1:pos:R:3 gdb_121726=T pbc="F F F"
O       -0.05590000       1.48760000      -0.14100000
C        0.02160000       0.07700000      -0.09720000
C       -1.33900000      -0.57230000       0.07250000
O       -2.10210000      -0.23370000      -1.10640000
C       -3.37510000      -0.70090000      -1.12120000
O       -3.88570000      -1.35320000      -0.25760000
N       -3.96340000      -0.28770000      -2.31720000
C       -5.26210000      -0.54490000      -2.74410000
O       -6.10070000      -1.16060000      -2.14960000
H       -0.65480000       1.71260000      -0.86080000
H        0.51200000      -0.33220000      -0.99450000
H        0.64280000      -0.17930000       0.76690000
H       -1.26320000      -1.66080000       0.15720000
H       -1.85640000      -0.18590000       0.95480000
H       -3.37140000       0.24640000      -2.93580000
H       -5.42510000      -0.08860000      -3.74120000
