19
Properties=species:S:1:pos:R:3 gdb_60038=T pbc="F F F"
C       -0.41880000       1.71070000       0.11770000
C       -0.10420000       0.23550000      -0.13280000
O        0.96010000      -0.21950000       0.69550000
C       -1.35660000      -0.64280000       0.00890000
C       -1.05450000      -2.14140000      -0.04480000
C       -0.69610000      -2.75820000       1.29960000
O       -0.51000000      -2.13420000       2.31340000
C       -2.14020000      -2.98180000      -0.71280000
O       -3.10340000      -2.53350000      -1.27370000
H        0.48750000       2.31140000       0.00610000
H       -1.17300000       2.08210000      -0.58440000
H       -0.80160000       1.85630000       1.13460000
H        0.28100000       0.12730000      -1.15640000
H        0.59590000      -0.39190000       1.57340000
H       -1.85000000      -0.41950000       0.96240000
H       -2.07300000      -0.40140000      -0.78130000
H       -0.15410000      -2.33860000      -0.65760000
H       -0.60770000      -3.86680000       1.29530000
H       -1.96660000      -4.08060000      -0.66240000
