20
Properties=species:S:1:pos:R:3 gdb_8065=T pbc="F F F"
C       -0.02110000       1.63200000       0.02400000
C       -0.21090000       0.11080000      -0.04250000
C        0.57300000      -0.52010000      -1.18450000
C        2.10340000      -0.79420000      -1.14130000
C        1.89170000      -1.98070000      -0.17710000
C        0.83380000      -2.05640000      -1.31420000
C       -0.11270000      -3.15980000      -1.67160000
O        1.92620000      -1.72830000      -2.27490000
H        1.02630000       1.89330000       0.20930000
H       -0.31810000       2.10860000      -0.91640000
H       -0.62160000       2.07210000       0.82590000
H        0.06370000      -0.33240000       0.92060000
H       -1.27580000      -0.11470000      -0.18700000
H        0.28250000      -0.09370000      -2.15060000
H        2.93750000      -0.09450000      -1.20110000
H        2.66420000      -2.74950000      -0.22740000
H        1.55950000      -1.78740000       0.84490000
H       -0.86590000      -3.28290000      -0.88670000
H       -0.62590000      -2.93490000      -2.61160000
H        0.42410000      -4.10640000      -1.78660000
