15
Properties=species:S:1:pos:R:3 gdb_66406=T pbc="F F F"
O       -0.05590000       1.44930000       0.01700000
C       -0.00580000       0.08140000      -0.06040000
C       -1.17110000      -0.91960000      -0.03820000
C       -0.48910000      -1.80870000      -1.08900000
C        0.64170000      -0.74480000      -1.14920000
O        1.54840000      -0.53970000      -1.90150000
C       -0.28380000      -0.80170000       1.17790000
C        0.57910000      -1.84750000       1.64800000
C        1.30500000      -2.71960000       2.04770000
H        0.79300000       1.77170000       0.34180000
H       -2.22680000      -0.68860000       0.00720000
H       -0.21100000      -2.81620000      -0.77360000
H       -1.01730000      -1.84750000      -2.04560000
H       -0.71920000      -0.18070000       1.95790000
H        1.94950000      -3.48680000       2.39940000
