16
Properties=species:S:1:pos:R:3 gdb_127446=T pbc="F F F"
C        0.01060000       1.42320000      -0.00730000
N        0.01510000      -0.02590000       0.04690000
N        0.00270000      -0.72480000      -1.09690000
C        0.01110000      -2.00450000      -0.70440000
C        0.02880000      -2.11720000       0.70400000
C        0.03100000      -0.81590000       1.16120000
C        0.04660000      -0.26090000       2.54650000
C        0.00220000      -3.06210000      -1.65560000
N       -0.00460000      -3.95100000      -2.39670000
H        0.90620000       1.83280000       0.46930000
H       -0.00350000       1.70650000      -1.05850000
H       -0.87490000       1.82810000       0.49180000
H        0.03840000      -3.01890000       1.29340000
H        0.93040000       0.36170000       2.72740000
H       -0.83640000       0.35590000       2.74960000
H        0.05840000      -1.07640000       3.27180000
