20
Properties=species:S:1:pos:R:3 gdb_68304=T pbc="F F F"
C        0.33030000       1.32940000       0.49120000
C        0.01410000      -0.05330000       0.01860000
C        0.61560000      -0.89010000      -1.14170000
C       -0.27260000      -1.81250000      -0.28120000
O        0.31980000      -1.20000000       0.92890000
C       -1.37290000      -0.69590000      -0.28400000
N       -2.41600000      -0.56620000       0.69270000
C       -3.44650000      -1.60140000       0.73790000
C       -2.47340000      -1.44610000       1.85390000
H        1.38780000       1.41400000       0.75810000
H        0.11090000       2.05520000      -0.29820000
H       -0.27730000       1.57790000       1.36590000
H        0.30790000      -0.66180000      -2.16570000
H        1.68370000      -1.08630000      -1.04650000
H       -0.35340000      -2.89960000      -0.30220000
H       -1.78720000      -0.45580000      -1.26880000
H       -4.46880000      -1.24570000       0.83340000
H       -3.32520000      -2.47060000       0.09310000
H       -1.70470000      -2.20160000       1.96900000
H       -2.77830000      -0.96520000       2.77940000
