18
Properties=species:S:1:pos:R:3 gdb_432=T pbc="F F F"
C       -0.59010000       1.38110000      -0.07850000
C        0.07650000       0.01420000      -0.03110000
C        1.46010000      -0.18340000      -0.71050000
C        1.85960000      -1.12640000       0.45540000
C        0.69450000      -0.53270000       1.30300000
C        1.14550000       0.52220000       2.31060000
H        0.07110000       2.16840000       0.29790000
H       -0.86160000       1.64410000      -1.10730000
H       -1.50830000       1.40250000       0.51980000
H       -0.62060000      -0.73730000      -0.42010000
H        1.47220000      -0.59240000      -1.72420000
H        2.04680000       0.74110000      -0.70930000
H        1.69600000      -2.17890000       0.20730000
H        2.86860000      -1.02160000       0.86460000
H        0.07150000      -1.27210000       1.81700000
H        1.80440000       1.26860000       1.85320000
H        0.29410000       1.05470000       2.74810000
H        1.70200000       0.05410000       3.13010000
