15
Properties=species:S:1:pos:R:3 gdb_3410=T pbc="F F F"
O       -0.22820000       1.47030000       0.07850000
C       -0.12100000       0.06350000       0.07410000
C       -0.46730000      -0.78060000       1.26210000
C       -1.57340000      -0.11010000       2.08120000
C       -2.49360000      -0.11660000       0.80780000
O       -3.05220000       1.08250000       0.34790000
C       -1.36050000      -0.75870000      -0.00930000
H        0.43840000       1.82490000       0.67660000
H        0.70890000      -0.30720000      -0.52660000
H        0.19030000      -1.56670000       1.61370000
H       -1.96230000      -0.73530000       2.88730000
H       -1.33860000       0.88050000       2.48140000
H       -3.32460000      -0.81330000       0.94230000
H       -2.30640000       1.66650000       0.15810000
H       -1.49140000      -1.50600000      -0.78350000
