25
Properties=species:S:1:pos:R:3 gdb_52704=T pbc="F F F"
C       -0.01440000       1.51140000      -0.09040000
C       -0.01920000       0.05540000      -0.05020000
C       -0.02040000      -1.14850000      -0.00700000
C       -0.03130000      -2.61270000       0.01470000
C       -1.47930000      -3.14240000       0.06450000
C        0.76860000      -3.16320000      -1.19360000
C        0.95400000      -4.69080000      -1.25640000
C        1.67150000      -5.07250000      -2.55950000
C        1.71400000      -5.24350000      -0.04220000
H        0.36850000       1.88370000      -1.04730000
H       -1.02340000       1.91820000       0.04080000
H        0.61550000       1.93130000       0.70200000
H        0.47470000      -2.93440000       0.93500000
H       -2.01420000      -2.88620000      -0.85560000
H       -1.49960000      -4.22950000       0.18300000
H       -2.02150000      -2.69910000       0.90370000
H        0.26940000      -2.82450000      -2.11040000
H        1.75780000      -2.68770000      -1.19270000
H       -0.03810000      -5.16130000      -1.27860000
H        2.67690000      -4.63600000      -2.59540000
H        1.77840000      -6.15860000      -2.64910000
H        1.12310000      -4.71480000      -3.43730000
H        1.17970000      -5.06830000       0.89640000
H        1.86550000      -6.32390000      -0.13600000
H        2.70250000      -4.77630000       0.04500000
