14
Properties=species:S:1:pos:R:3 gdb_42581=T pbc="F F F"
O        0.01270000       0.04050000       0.08570000
C        0.00950000       1.24120000       0.03320000
C       -1.18110000       2.15130000       0.00930000
C       -1.02850000       3.50350000       0.64100000
C        0.45910000       3.87010000       0.81350000
O        1.30640000       2.79970000       1.27170000
C        1.21140000       2.18660000      -0.05600000
C        0.61280000       3.48000000      -0.65990000
N       -0.90610000       3.33640000      -0.84770000
H       -2.17330000       1.72410000      -0.07240000
H       -1.88150000       4.00130000       1.09080000
H        0.68700000       4.83570000       1.26450000
H        2.14750000       1.74650000      -0.39700000
H        1.11850000       4.04280000      -1.43830000
