16
Properties=species:S:1:pos:R:3 gdb_2846=T pbc="F F F"
C       -0.09300000       1.36300000       0.42940000
C       -0.09300000      -0.13080000       0.08340000
C       -1.47420000      -0.68400000      -0.19670000
C       -1.77070000      -2.14720000      -0.01680000
N       -2.33240000      -1.16450000       0.87900000
C       -2.08920000      -1.11990000       2.23800000
O       -1.98970000      -2.08590000       2.95590000
H        0.92720000       1.73080000       0.57150000
H       -0.55240000       1.95260000      -0.37120000
H       -0.65130000       1.56190000       1.34970000
H        0.52260000      -0.29760000      -0.80970000
H        0.36930000      -0.70880000       0.89280000
H       -2.01990000      -0.16100000      -0.98240000
H       -2.47140000      -2.64580000      -0.68080000
H       -0.98290000      -2.78000000       0.38520000
H       -2.07320000      -0.08050000       2.61820000
