14
Properties=species:S:1:pos:R:3 gdb_12951=T pbc="F F F"
N       -0.10760000       1.51040000      -0.13070000
C       -0.02240000       0.10490000      -0.03050000
C       -0.35650000      -0.80520000      -1.23310000
O        0.48160000      -1.76710000      -1.76780000
C       -1.11130000      -0.99040000       0.02480000
O       -0.28180000      -1.78450000       0.92000000
C        0.65250000      -0.73630000       1.00620000
N        1.62850000      -0.58680000       1.77450000
H       -0.11890000       1.94510000       0.78650000
H        0.68410000       1.88880000      -0.64060000
H       -0.87000000      -0.24140000      -2.00680000
H        0.62500000      -2.43250000      -1.08220000
H       -2.17360000      -0.96360000       0.22670000
H        1.74520000      -1.38450000       2.40110000
