16
Properties=species:S:1:pos:R:3 gdb_133554=T pbc="F F F"
F       -0.19920000       0.09090000      -0.20390000
C       -0.00120000       1.39930000       0.04260000
F        1.32380000       1.58640000       0.17760000
F       -0.38950000       2.06210000      -1.06180000
C       -0.74370000       1.84640000       1.25250000
C       -0.30650000       3.03100000       2.06560000
C       -0.35430000       1.67970000       2.72230000
C       -1.80030000       1.30450000       3.07400000
C       -2.19620000       1.46690000       1.56740000
H        0.68790000       3.40050000       1.84250000
H       -1.03160000       3.79920000       2.32310000
H        0.53920000       1.21940000       3.12510000
H       -1.90700000       0.27440000       3.41850000
H       -2.29890000       1.96670000       3.78810000
H       -2.94860000       2.22240000       1.32420000
H       -2.48470000       0.51790000       1.11310000
