18
Properties=species:S:1:pos:R:3 gdb_116852=T pbc="F F F"
C       -0.03390000       1.43500000       0.09040000
N        0.10070000      -0.00260000      -0.02560000
C        0.55500000      -0.60880000      -1.16280000
O        0.88460000      -0.00700000      -2.17060000
C        0.61080000      -2.05940000      -1.06090000
C        0.67400000      -3.26290000      -1.02260000
C        0.76500000      -4.71470000      -1.01700000
C        1.28640000      -5.27850000      -2.34470000
O        1.32350000      -6.68680000      -2.19910000
H        0.59610000       1.83080000       0.89490000
H        0.28510000       1.86880000      -0.85780000
H       -1.07300000       1.72390000       0.28440000
H       -0.14610000      -0.59100000       0.75300000
H        1.42800000      -5.04980000      -0.21000000
H       -0.21830000      -5.15540000      -0.81180000
H        0.61810000      -4.96720000      -3.16060000
H        2.28210000      -4.86040000      -2.55250000
H        1.64800000      -7.06740000      -3.02030000
