21
Properties=species:S:1:pos:R:3 gdb_6768=T pbc="F F F"
C        0.01530000       1.58970000       0.00170000
C       -0.00500000       0.06070000      -0.07240000
C       -1.41290000      -0.53180000       0.05230000
C       -1.43150000      -2.06130000      -0.01500000
C       -2.83810000      -2.65140000       0.10580000
C       -2.82790000      -4.17690000       0.19600000
N       -3.97560000      -4.78450000      -0.23280000
O       -1.88150000      -4.81080000       0.62080000
H        1.03310000       1.98160000      -0.09080000
H       -0.58610000       2.03350000      -0.79970000
H       -0.39260000       1.94560000       0.95450000
H        0.44150000      -0.26690000      -1.02060000
H        0.63150000      -0.35470000       0.71980000
H       -1.86180000      -0.20230000       1.00050000
H       -2.05100000      -0.11750000      -0.74170000
H       -0.98040000      -2.39570000      -0.95790000
H       -0.81140000      -2.48740000       0.78020000
H       -3.32070000      -2.27750000       1.02020000
H       -3.47340000      -2.32680000      -0.72780000
H       -4.79070000      -4.26010000      -0.49730000
H       -4.06550000      -5.77770000      -0.09340000
