18
Properties=species:S:1:pos:R:3 gdb_115757=T pbc="F F F"
C        0.20510000       1.42060000       0.10850000
O       -0.29690000       0.17470000      -0.33250000
C        0.54760000      -0.48090000      -1.23490000
C        1.73420000      -1.28470000      -0.64940000
O        1.17470000      -2.52490000      -1.13460000
C        0.01270000      -1.86480000      -1.66940000
C       -1.28950000      -2.31440000      -0.99710000
C       -1.61770000      -3.70060000      -1.31860000
N       -1.88100000      -4.79340000      -1.58520000
H        1.15170000       1.31040000       0.65700000
H        0.36940000       2.10760000      -0.73520000
H       -0.54230000       1.85000000       0.77850000
H        0.81720000       0.18190000      -2.06850000
H        2.72150000      -1.08610000      -1.08080000
H        1.79700000      -1.25790000       0.44540000
H       -0.05910000      -2.00960000      -2.75380000
H       -1.20420000      -2.19760000       0.08620000
H       -2.10860000      -1.66580000      -1.32680000
