23
Properties=species:S:1:pos:R:3 gdb_111917=T pbc="F F F"
C       -0.81070000       1.26460000      -0.02370000
C        0.08320000       0.02440000      -0.06550000
C        1.30420000       0.13780000      -1.01270000
C        2.31510000      -0.81330000      -0.40480000
C        3.53500000      -1.25080000      -1.15110000
C        1.95630000      -1.14920000       0.83780000
C        0.68750000      -0.45900000       1.29190000
C        0.99200000       0.66830000       2.29730000
O        1.60070000       0.18470000       3.48560000
H       -0.26360000       2.15480000       0.30400000
H       -1.21550000       1.47890000      -1.01870000
H       -1.66040000       1.12510000       0.65320000
H       -0.52200000      -0.81200000      -0.43620000
H        1.05130000      -0.11700000      -2.04950000
H        1.70640000       1.16210000      -1.04270000
H        4.15100000      -0.38970000      -1.44130000
H        4.15540000      -1.92660000      -0.55580000
H        3.26630000      -1.76480000      -2.08290000
H        2.52410000      -1.81790000       1.47830000
H        0.00580000      -1.15350000       1.79900000
H        1.61720000       1.43930000       1.81940000
H        0.06380000       1.15060000       2.61920000
H        2.46150000      -0.17080000       3.24280000
