21
Properties=species:S:1:pos:R:3 gdb_82375=T pbc="F F F"
C       -0.93360000       1.13220000       0.09420000
C       -0.00170000      -0.07620000      -0.01610000
C        0.74660000      -0.08560000      -1.34210000
N        1.83300000       0.89840000      -1.52930000
C        2.15460000      -0.53960000      -1.41990000
C        2.87240000      -1.01020000      -0.17290000
C        2.20290000      -0.62060000       1.13870000
C        1.87490000       0.79710000       1.46830000
N        0.81020000      -0.17790000       1.20330000
H       -0.36090000       2.06250000       0.03640000
H       -1.66740000       1.13240000      -0.71840000
H       -1.46900000       1.11050000       1.04710000
H       -0.62170000      -0.98540000      -0.02270000
H        0.10740000      -0.28930000      -2.20060000
H        1.87720000       1.19340000      -2.50060000
H        2.46670000      -1.04180000      -2.33360000
H        2.92400000      -2.10590000      -0.22150000
H        3.91050000      -0.65360000      -0.17740000
H        2.47870000      -1.27560000       1.96470000
H        1.92990000       1.13890000       2.49990000
H        2.09840000       1.53890000       0.71050000
