17
Properties=species:S:1:pos:R:3 gdb_60722=T pbc="F F F"
C       -0.43920000       1.45350000       0.15730000
N       -0.06020000       0.04220000       0.03300000
C        0.40930000      -0.60140000       1.17570000
O        0.49180000      -0.06560000       2.25500000
C       -0.20340000      -0.68040000      -1.15130000
N       -0.31660000      -1.95300000      -1.12070000
C       -0.10570000       0.11060000      -2.46040000
C       -0.73340000      -0.51550000      -3.69160000
O        0.48890000       1.16070000      -2.50560000
H        0.37120000       2.11470000      -0.15180000
H       -1.31880000       1.66220000      -0.45330000
H       -0.67220000       1.62490000       1.20800000
H        0.70440000      -1.63910000       0.97210000
H       -0.34370000      -2.34230000      -2.06030000
H       -1.73110000      -0.91040000      -3.48020000
H       -0.78240000       0.24020000      -4.47590000
H       -0.11770000      -1.34550000      -4.05750000
