15
Properties=species:S:1:pos:R:3 gdb_125772=T pbc="F F F"
C       -0.01150000       1.53380000       0.12910000
C       -0.00400000       0.05050000      -0.00760000
N       -0.06650000      -0.53560000      -1.17470000
O       -0.03280000      -1.91790000      -0.84870000
C        0.04560000      -1.96640000       0.47570000
N        0.09730000      -3.15900000       1.14210000
C        0.08180000      -4.45560000       0.64470000
N        0.01240000      -4.73190000      -0.58860000
N        0.06820000      -0.80270000       1.06890000
H        0.89850000       1.87220000       0.63340000
H       -0.07450000       2.00350000      -0.85340000
H       -0.86270000       1.85370000       0.73750000
H        0.15480000      -3.04330000       2.14160000
H        0.13790000      -5.17540000       1.46930000
H        0.01500000      -5.74040000      -0.72460000
