16
Properties=species:S:1:pos:R:3 gdb_18687=T pbc="F F F"
O       -0.05080000      -0.03320000       0.28170000
C       -0.04280000       1.16470000       0.09230000
N       -1.18120000       1.90440000      -0.12700000
C       -1.25340000       3.35190000       0.03610000
C       -0.16770000       3.80410000       1.02630000
C        1.16220000       3.29030000       0.50920000
C        1.92430000       2.20150000       1.19540000
N        1.14780000       1.91950000      -0.00420000
H       -2.02910000       1.36290000      -0.07740000
H       -1.11550000       3.86490000      -0.92610000
H       -2.25120000       3.61360000       0.40080000
H       -0.15630000       4.89380000       1.11650000
H       -0.39190000       3.38800000       2.01430000
H        1.71880000       3.98020000      -0.12250000
H        3.00250000       2.13600000       1.08160000
H        1.53920000       1.82730000       2.14100000
