20
Properties=species:S:1:pos:R:3 gdb_31773=T pbc="F F F"
C        0.33840000       1.24450000       0.24790000
N        0.02110000      -0.16540000       0.11010000
C       -0.05550000      -0.86010000      -1.07840000
C        0.23290000      -0.22660000      -2.39980000
C       -0.41960000      -2.15740000      -0.78280000
C       -0.56850000      -2.25260000       0.62400000
C       -0.29900000      -1.01070000       1.15870000
C       -0.31670000      -0.56390000       2.58010000
O        0.96200000      -0.13620000       3.06850000
H        0.80160000       1.41010000       1.22140000
H        1.04450000       1.54480000      -0.52920000
H       -0.55590000       1.87390000       0.16010000
H        1.26040000       0.15350000      -2.47000000
H        0.10380000      -0.96720000      -3.19230000
H       -0.43700000       0.61400000      -2.61980000
H       -0.55340000      -2.94640000      -1.50760000
H       -0.84790000      -3.12750000       1.19250000
H       -0.97180000       0.30210000       2.73260000
H       -0.71900000      -1.38440000       3.19060000
H        1.59000000      -0.83090000       2.84130000
