14
Properties=species:S:1:pos:R:3 gdb_25785=T pbc="F F F"
N       -0.13750000       1.31020000       0.08810000
C        0.02390000      -0.05630000       0.05300000
N        1.18130000      -0.59800000       0.05390000
C       -1.23610000      -0.82750000       0.06120000
N       -1.36670000      -2.12370000       0.08840000
C       -2.72340000      -2.33570000       0.06690000
O       -3.25170000      -3.56930000       0.08710000
C       -3.37730000      -1.14310000       0.02370000
O       -2.41130000      -0.16600000       0.02080000
H        0.69750000       1.83440000      -0.12360000
H       -1.00090000       1.69320000      -0.25940000
H        1.08560000      -1.61180000       0.08980000
H       -2.51460000      -4.19150000       0.11890000
H       -4.40430000      -0.83050000      -0.00410000
