17
Properties=species:S:1:pos:R:3 gdb_65770=T pbc="F F F"
C        0.06180000       1.56000000      -0.05420000
C       -0.00350000       0.03970000       0.00550000
O       -1.40520000      -0.37550000       0.03130000
C       -2.11200000      -0.31240000      -1.11530000
O       -3.27420000      -0.59440000      -1.16040000
O        0.66980000      -0.51540000      -1.09870000
C        1.48250000      -1.61860000      -0.68520000
C        1.46520000      -1.55850000       0.81380000
C        0.63010000      -0.60810000       1.21140000
H        1.10020000       1.88960000       0.02750000
H       -0.34370000       1.92290000      -1.00250000
H       -0.52020000       1.99290000       0.76300000
H       -1.51300000      -0.00230000      -1.98640000
H        1.07300000      -2.56490000      -1.06800000
H        2.48350000      -1.48970000      -1.11580000
H        2.04610000      -2.22340000       1.43950000
H        0.36800000      -0.32800000       2.22190000
