15
Properties=species:S:1:pos:R:3 gdb_4498=T pbc="F F F"
C       -0.05430000       1.51010000       0.06400000
C       -0.01570000       0.02370000      -0.05220000
C       -0.06360000      -0.80140000      -1.15160000
C        0.01820000      -2.15040000      -0.68580000
O       -0.05100000      -3.33890000      -1.38760000
C        0.10710000      -2.10260000       0.68130000
O        0.19110000      -3.08530000       1.61290000
N        0.08060000      -0.79070000       1.06660000
H        0.85250000       1.91940000       0.52900000
H       -0.14120000       1.95430000      -0.93050000
H       -0.90910000       1.86210000       0.65660000
H       -0.15120000      -0.47930000      -2.17840000
H        0.67100000      -3.36360000      -2.02400000
H        0.16000000      -3.91870000       1.12750000
H        0.12310000      -0.48190000       2.02210000
