13
Properties=species:S:1:pos:R:3 gdb_3719=T pbc="F F F"
C        0.41030000       1.17710000       0.58290000
C       -0.33630000       0.34880000      -0.46640000
C        0.56940000      -0.35160000      -1.42690000
C        1.92320000      -0.39120000      -1.54270000
O        2.25730000      -1.16590000      -2.57470000
N        1.02850000      -1.63400000      -3.13000000
N        0.09010000      -1.15040000      -2.44970000
H        1.07130000       0.54940000       1.18940000
H        1.02000000       1.95690000       0.11470000
H       -0.29570000       1.66700000       1.25820000
H       -0.97130000      -0.39720000       0.02680000
H       -1.02190000       0.99070000      -1.03290000
H        2.72920000       0.06040000      -0.98930000
