18
Properties=species:S:1:pos:R:3 gdb_89666=T pbc="F F F"
C       -0.14470000       1.52450000      -0.00160000
C        0.11130000       0.02800000       0.00770000
N        1.26270000      -0.44320000      -0.84630000
C        1.77280000      -1.25970000       0.28040000
C        2.19310000      -0.31010000       1.37230000
C        0.73230000      -0.64210000       1.25120000
N        0.05880000      -1.23470000       2.34100000
C        2.23360000      -2.59450000       0.12860000
N        2.58160000      -3.68970000      -0.01860000
H        0.76080000       2.08000000       0.25670000
H       -0.47150000       1.85670000      -0.99200000
H       -0.93090000       1.78260000       0.71660000
H       -0.80820000      -0.51460000      -0.25200000
H        0.93540000      -1.03600000      -1.60320000
H        2.66740000      -0.77600000       2.22900000
H        2.59060000       0.65410000       1.07030000
H       -0.07540000      -0.58730000       3.11030000
H       -0.84000000      -1.62300000       2.07820000
