18
Properties=species:S:1:pos:R:3 gdb_23128=T pbc="F F F"
O        0.02970000       1.46720000      -0.05480000
C        0.04100000       0.06050000      -0.01190000
C       -1.37490000      -0.53770000       0.04180000
C       -1.40560000      -2.09000000       0.00780000
C       -2.21550000      -2.47810000       1.21760000
C       -2.59020000      -1.42220000       1.95280000
C       -2.09600000      -0.19260000       1.34010000
N       -2.16990000       1.01890000       1.75070000
O       -2.83700000       1.11950000       2.98310000
H       -0.55890000       1.75910000       0.65820000
H        0.54670000      -0.28270000      -0.92190000
H        0.62020000      -0.32170000       0.84750000
H       -1.93610000      -0.12360000      -0.80270000
H       -1.84370000      -2.47860000      -0.91860000
H       -0.39430000      -2.51650000       0.06560000
H       -2.44360000      -3.51170000       1.45430000
H       -3.15690000      -1.43910000       2.87240000
H       -2.85190000       2.07050000       3.13300000
