20
Properties=species:S:1:pos:R:3 gdb_101598=T pbc="F F F"
C        0.18100000      -0.11330000       0.57310000
O        0.56000000      -0.96600000      -0.51730000
C        0.89130000      -0.33360000      -1.66700000
N        0.81930000       0.92540000      -1.77410000
O        1.24740000      -1.16150000      -2.65980000
C        1.71120000      -2.53760000      -2.49700000
C        2.88820000      -2.65230000      -1.53580000
C        0.56880000      -3.52830000      -2.22230000
O        0.23100000      -3.71410000      -0.86830000
H        0.99120000       0.57880000       0.81050000
H       -0.70940000       0.46250000       0.31280000
H       -0.01800000      -0.78180000       1.41160000
H        1.12620000       1.21250000      -2.70010000
H        2.05880000      -2.74600000      -3.51420000
H        3.33080000      -3.64870000      -1.63000000
H        3.65410000      -1.91170000      -1.78100000
H        2.57480000      -2.52240000      -0.50020000
H       -0.29700000      -3.22120000      -2.83070000
H        0.89420000      -4.50810000      -2.59180000
H        0.04430000      -2.83690000      -0.51190000
