16
Properties=species:S:1:pos:R:3 gdb_46554=T pbc="F F F"
O        0.12840000      -0.02490000       0.30890000
C        0.05130000       1.15790000       0.14340000
N       -1.06400000       1.90250000      -0.19440000
C       -0.84920000       3.31430000      -0.03920000
C       -1.59460000       4.30860000      -0.95830000
O       -2.08110000       5.05250000       0.17380000
C       -1.57210000       4.08010000       1.10400000
C        0.69160000       3.34170000      -0.07720000
O        1.11040000       2.01630000       0.25720000
H       -1.96730000       1.47430000      -0.06810000
H       -0.97150000       4.91990000      -1.62280000
H       -2.40460000       3.85300000      -1.54320000
H       -2.37370000       3.50360000       1.58630000
H       -0.93790000       4.53100000       1.87660000
H        1.05250000       3.58720000      -1.08320000
H        1.12590000       4.04210000       0.63930000
