18
Properties=species:S:1:pos:R:3 gdb_14243=T pbc="F F F"
C        0.28960000       1.57830000      -0.09410000
C        0.09100000       0.07390000       0.01810000
C        0.92840000      -0.86810000      -0.89970000
C        1.25510000      -1.78520000       0.32930000
C        0.60010000      -0.69740000       1.26860000
C        2.01030000      -0.32370000       1.81430000
C        2.61180000      -1.44990000       0.94610000
O        3.71020000      -1.91510000       0.84420000
H        1.34550000       1.85830000      -0.01950000
H       -0.07550000       1.94600000      -1.05950000
H       -0.25560000       2.11200000       0.69240000
H       -0.97240000      -0.15420000      -0.11260000
H        0.36970000      -1.36560000      -1.69440000
H        1.81060000      -0.40240000      -1.34900000
H        0.95520000      -2.83110000       0.26260000
H       -0.13500000      -0.94940000       2.03270000
H        2.38700000       0.68410000       1.61910000
H        2.13890000      -0.52760000       2.88230000
