17
Properties=species:S:1:pos:R:3 gdb_56536=T pbc="F F F"
C       -0.05840000       1.56860000       0.24000000
C       -0.00010000       0.04880000       0.11440000
O        0.71730000      -0.56800000       1.17140000
C       -1.39870000      -0.57140000       0.19530000
O       -2.42460000       0.02260000       0.00960000
C        0.62400000      -0.41780000      -1.24940000
O       -0.07590000       0.07570000      -2.37370000
C        2.05390000      -0.08890000      -1.27490000
C        3.21600000       0.22360000      -1.26620000
H        0.92960000       2.01000000       0.07680000
H       -0.77090000       1.98640000      -0.47520000
H       -0.39920000       1.83660000       1.24240000
H        1.65070000      -0.34710000       1.05870000
H       -1.37240000      -1.65370000       0.45170000
H        0.51850000      -1.50850000      -1.29340000
H        0.10160000       1.01960000      -2.45130000
H        4.24780000       0.47810000      -1.28690000
