14
Properties=species:S:1:pos:R:3 gdb_11240=T pbc="F F F"
N        0.12390000       1.27240000       0.08500000
C       -0.02720000      -0.08220000      -0.02520000
N       -1.08680000      -0.75540000       0.18600000
C       -0.77220000      -2.13760000      -0.15660000
C        0.75300000      -2.12420000      -0.53510000
O        1.09870000      -0.71700000      -0.46570000
C        1.60160000      -2.90120000       0.35640000
C        2.27680000      -3.57070000       1.09110000
H        1.06230000       1.58570000       0.27960000
H       -0.59570000       1.72110000       0.63000000
H       -0.96320000      -2.80770000       0.68690000
H       -1.38070000      -2.48340000      -1.00030000
H        0.91710000      -2.44140000      -1.56950000
H        2.87880000      -4.15890000       1.73900000
