22
Properties=species:S:1:pos:R:3 gdb_96387=T pbc="F F F"
C       -0.03620000       1.56540000      -0.02270000
C        0.04670000       0.03720000      -0.01360000
C        0.67780000      -0.52220000      -1.29930000
C        0.72280000      -2.05700000      -1.30340000
C        1.44370000      -2.60320000      -0.06290000
C        0.82430000      -2.05810000       1.22990000
C        0.78610000      -0.50960000       1.24130000
C        2.14510000       0.03690000       1.34220000
N        3.21860000       0.46080000       1.41660000
H        0.95980000       2.01550000      -0.08700000
H       -0.61840000       1.91340000      -0.88160000
H       -0.51780000       1.94580000       0.88470000
H       -0.97440000      -0.36310000       0.06210000
H        0.11360000      -0.15690000      -2.16500000
H        1.69580000      -0.12220000      -1.40040000
H       -0.30370000      -2.44900000      -1.32830000
H        1.21420000      -2.41610000      -2.21400000
H        1.41140000      -3.69790000      -0.05250000
H        2.50350000      -2.32100000      -0.10060000
H       -0.21040000      -2.41010000       1.32470000
H        1.36860000      -2.42210000       2.10670000
H        0.24750000      -0.17290000       2.13590000
