22
Properties=species:S:1:pos:R:3 gdb_94004=T pbc="F F F"
C       -0.35140000       1.45500000      -0.01790000
C        0.08740000      -0.00560000       0.04230000
C        0.95510000      -0.47240000      -1.14250000
C        1.55750000      -1.79830000      -0.65760000
N        1.56840000      -1.65650000       0.80230000
C        2.00070000      -2.65810000       1.60350000
O        2.47290000      -3.70630000       1.20720000
C        0.93660000      -0.41650000       1.27370000
C        1.97480000       0.61970000       1.72500000
H        0.50490000       2.13350000      -0.08170000
H       -0.97700000       1.62890000      -0.89920000
H       -0.93840000       1.73550000       0.86320000
H       -0.81100000      -0.63670000       0.06160000
H        0.37960000      -0.59010000      -2.06390000
H        1.74460000       0.26070000      -1.34340000
H        0.94270000      -2.66120000      -0.94030000
H        2.56560000      -1.98660000      -1.03770000
H        1.87520000      -2.42110000       2.68010000
H        0.28360000      -0.64470000       2.12430000
H        2.63200000       0.91910000       0.90260000
H        1.48960000       1.51620000       2.12300000
H        2.60380000       0.19960000       2.51540000
