17
Properties=species:S:1:pos:R:3 gdb_72981=T pbc="F F F"
N       -0.10070000       1.48420000       0.01440000
C       -0.05130000       0.06810000      -0.05720000
C        0.69760000      -0.82040000      -1.07210000
C       -0.49120000      -1.83230000      -1.04500000
C       -1.22280000      -0.93600000      -0.04230000
C       -0.33640000      -0.74690000       1.17980000
O        0.59730000      -1.70640000       1.58570000
C       -0.95510000      -0.04200000       2.28580000
N       -1.43810000       0.44750000       3.21530000
H        0.73880000       1.86980000       0.43560000
H       -0.20900000       1.89690000      -0.90590000
H        0.78800000      -0.31900000      -2.03920000
H        1.67680000      -1.19200000      -0.76360000
H       -1.01300000      -1.89940000      -2.00110000
H       -0.25420000      -2.83950000      -0.69550000
H       -2.28900000      -0.75550000       0.02100000
H        0.12850000      -2.40380000       2.05910000
