15
Properties=species:S:1:pos:R:3 gdb_24935=T pbc="F F F"
O        0.00280000       0.06670000       0.00430000
C       -0.01040000       1.26580000       0.01080000
C       -1.31970000       2.12440000       0.03340000
C       -0.73760000       3.49070000       0.03210000
C        0.62640000       3.54000000       0.01350000
C        1.24530000       2.18080000      -0.00180000
N        1.08570000       4.83270000       0.01350000
C       -0.01010000       5.56250000       0.03220000
N       -1.15340000       4.79900000       0.04430000
H       -1.93200000       1.86930000      -0.84090000
H       -1.90730000       1.86050000       0.92190000
H        1.87190000       1.94890000       0.86790000
H        1.84790000       1.95770000      -0.89060000
H       -0.04980000       6.64150000       0.03810000
H       -2.09770000       5.14560000       0.05900000
