15
Properties=species:S:1:pos:R:3 gdb_17836=T pbc="F F F"
N        0.54810000       0.36780000       0.83300000
C       -0.02190000       0.02950000      -0.35780000
O        0.31600000       0.51680000      -1.42060000
C       -1.11920000      -1.00980000      -0.30750000
C       -0.98650000      -2.47150000       0.12330000
C       -0.19150000      -2.58750000       1.41690000
O       -1.03150000      -1.58010000       2.06310000
C       -1.86410000      -1.51910000       0.89320000
H        1.21570000       1.12160000       0.82520000
H        0.14390000       0.04510000       1.70040000
H       -1.74660000      -0.92920000      -1.19040000
H       -1.23510000      -3.28510000      -0.54330000
H       -0.32020000      -3.55180000       1.91790000
H        0.86410000      -2.30030000       1.40580000
H       -2.93410000      -1.44190000       1.04700000
