17
Properties=species:S:1:pos:R:3 gdb_54357=T pbc="F F F"
C        0.15680000       1.55560000       0.07400000
C        0.02050000       0.05460000       0.15960000
O       -0.04180000      -0.55650000       1.19810000
C       -0.06480000      -0.68260000      -1.19210000
C       -0.70080000      -2.09310000      -1.13740000
C       -1.84730000      -1.45470000      -1.94470000
O       -1.15800000      -0.17710000      -1.99770000
C        1.24220000      -0.62160000      -1.96780000
O        2.32000000      -0.41220000      -1.47660000
H        1.16770000       1.79740000      -0.27290000
H       -0.55050000       1.95960000      -0.65580000
H       -0.00420000       2.00020000       1.05650000
H       -0.14530000      -2.87560000      -1.65670000
H       -0.92520000      -2.40980000      -0.12000000
H       -2.01090000      -1.85920000      -2.94870000
H       -2.80900000      -1.37140000      -1.42710000
H        1.10440000      -0.80000000      -3.05820000
