13
Properties=species:S:1:pos:R:3 gdb_25387=T pbc="F F F"
N       -0.06240000       1.26430000       0.35000000
C       -0.01710000       0.05890000      -0.03190000
O        1.16490000      -0.55890000      -0.40790000
C        1.13510000      -1.85490000      -0.80640000
C        2.43790000      -2.43190000      -1.18850000
O        3.48350000      -1.83190000      -1.16460000
C       -0.01600000      -2.55880000      -0.84630000
N       -1.23850000      -2.01090000      -0.48560000
C       -1.21890000      -0.78090000      -0.10610000
H        0.86360000       1.69450000       0.33970000
H        2.36430000      -3.49280000      -1.50710000
H       -0.01730000      -3.59320000      -1.16780000
H       -2.14560000      -0.29550000       0.18910000
