18
Properties=species:S:1:pos:R:3 gdb_43700=T pbc="F F F"
O       -0.05900000      -0.04580000      -0.03140000
C       -0.03810000       1.14070000       0.08430000
C       -1.09460000       2.24570000       0.22980000
N        0.00530000       3.17720000       0.57580000
C       -0.00470000       4.48190000      -0.05510000
C        1.13140000       5.36690000       0.48970000
C        1.14380000       6.69110000      -0.11720000
C        1.12680000       7.77600000      -0.63390000
C        1.05860000       2.21310000       0.17150000
H       -1.58670000       2.45630000      -0.73440000
H       -1.86180000       2.11570000       1.00020000
H        0.08240000       4.41640000      -1.15680000
H       -0.96440000       4.96200000       0.16200000
H        1.02240000       5.44490000       1.57770000
H        2.09520000       4.87200000       0.31140000
H        1.12370000       8.73870000      -1.08170000
H        1.86260000       2.05300000       0.89690000
H        1.50310000       2.41110000      -0.81890000
