19
Properties=species:S:1:pos:R:3 gdb_93276=T pbc="F F F"
C       -0.51270000       1.42560000      -0.02690000
C        0.06150000       0.01320000       0.00080000
C        1.16740000      -0.24420000      -1.03580000
O        1.91310000      -1.38250000      -0.54840000
C        1.66070000      -1.56800000       0.76380000
O        2.08840000      -2.48800000       1.40480000
C        0.74570000      -0.45730000       1.29830000
C        1.60540000       0.60730000       1.99860000
O       -0.18970000      -1.00810000       2.20130000
H        0.26140000       2.18410000       0.12510000
H       -0.99310000       1.62910000      -0.98960000
H       -1.26860000       1.54840000       0.75380000
H       -0.74640000      -0.70600000      -0.17770000
H        0.78850000      -0.50050000      -2.02710000
H        1.85220000       0.60710000      -1.13110000
H        2.30700000       1.09660000       1.31470000
H        0.95650000       1.36750000       2.44030000
H        2.18350000       0.13730000       2.79920000
H        0.26630000      -1.73280000       2.65260000
