16
Properties=species:S:1:pos:R:3 gdb_25815=T pbc="F F F"
N        0.02650000       1.38610000       0.04490000
C        0.00200000      -0.00390000       0.00370000
N        1.27550000      -0.56810000      -0.06740000
H        1.28190000      -1.57210000       0.03970000
H        1.92830000      -0.14340000       0.58220000
C       -1.15230000      -0.72600000       0.03000000
C       -1.33130000      -2.15320000      -0.01550000
C       -2.65520000      -2.44370000      -0.04890000
C       -3.42420000      -1.19040000       0.02730000
O       -4.62140000      -0.99680000       0.12360000
N       -2.44930000      -0.17410000      -0.01080000
H        0.79920000       1.77550000      -0.48160000
H       -0.84280000       1.81890000      -0.23550000
H       -0.52210000      -2.87000000      -0.06890000
H       -3.12190000      -3.41540000      -0.09940000
H       -2.69170000       0.71900000       0.38730000
