16
Properties=species:S:1:pos:R:3 gdb_103017=T pbc="F F F"
O        0.22250000       1.12380000      -0.57630000
C       -0.01260000       0.02850000       0.28110000
C       -1.43870000      -0.51710000       0.16860000
C       -2.45370000       0.18580000       0.90270000
N       -3.28490000       0.72600000       1.50040000
C       -1.88330000      -1.10000000      -1.16920000
O       -0.87610000      -1.09950000      -2.15310000
C       -1.66580000      -2.04400000      -0.02700000
O       -0.57830000      -2.89430000      -0.07810000
H        0.14160000       0.79310000      -1.47800000
H        0.69180000      -0.79420000       0.10970000
H        0.14740000       0.38860000       1.30040000
H       -2.88410000      -0.86860000      -1.52150000
H       -1.21350000      -1.54680000      -2.93660000
H       -2.51840000      -2.47650000       0.48550000
H       -0.12890000      -2.72530000      -0.91820000
