17
Properties=species:S:1:pos:R:3 gdb_86479=T pbc="F F F"
O        0.19030000       1.39600000      -0.17310000
C        0.05140000       0.00100000      -0.03470000
C        0.24020000      -0.53790000       1.40980000
C       -1.33260000      -0.57800000       1.57950000
C       -1.41390000      -0.51310000       0.00050000
C       -1.89280000      -1.75980000       2.21620000
C       -2.33280000      -2.76080000       2.71500000
C       -1.83360000       0.65250000       2.18920000
C       -2.21710000       1.69210000       2.65770000
H       -0.36800000       1.82150000       0.48960000
H        0.69550000      -0.43900000      -0.79840000
H        0.64680000      -1.55090000       1.43080000
H        0.78660000       0.09910000       2.10680000
H       -2.17760000       0.14360000      -0.41870000
H       -1.51670000      -1.51850000      -0.41260000
H       -2.72910000      -3.63740000       3.16480000
H       -2.57340000       2.59390000       3.09170000
