25
Properties=species:S:1:pos:R:3 gdb_102585=T pbc="F F F"
C        0.55000000      -0.10010000       1.57810000
C        0.05710000      -0.24940000       0.13510000
C       -1.41860000      -0.68970000      -0.00210000
C       -1.97840000      -0.34380000      -1.39720000
C       -2.27540000       1.14660000      -1.59510000
C       -1.55320000      -2.17800000       0.32740000
C       -2.93250000      -2.87620000       0.27250000
C       -2.25910000      -3.80980000      -0.75180000
O       -1.04050000      -3.03910000      -0.72610000
H        1.59860000       0.21330000       1.60270000
H       -0.03440000       0.65380000       2.11810000
H        0.47880000      -1.03680000       2.14020000
H        0.19620000       0.70760000      -0.37940000
H        0.68050000      -0.97530000      -0.40220000
H       -2.01380000      -0.15240000       0.75390000
H       -1.26900000      -0.69170000      -2.15600000
H       -2.90390000      -0.90320000      -1.57630000
H       -1.38300000       1.76710000      -1.46530000
H       -2.66150000       1.33820000      -2.60130000
H       -3.02700000       1.49800000      -0.87890000
H       -1.02720000      -2.39110000       1.26820000
H       -3.26030000      -3.34110000       1.20350000
H       -3.74550000      -2.26690000      -0.12550000
H       -2.09740000      -4.83910000      -0.40610000
H       -2.70250000      -3.83950000      -1.75420000
