17
Properties=species:S:1:pos:R:3 gdb_47341=T pbc="F F F"
N       -0.07350000       1.32030000       0.16970000
C       -0.01450000       0.07620000      -0.04460000
C       -1.27480000      -0.76020000      -0.08160000
C       -1.19640000      -1.91090000      -1.10810000
C        0.11540000      -2.68610000      -0.88140000
C        1.28460000      -1.71870000      -1.00360000
O        1.18010000      -0.58670000      -0.12950000
C       -2.36760000      -2.78280000      -1.01830000
N       -3.28630000      -3.47920000      -0.93760000
H        0.86980000       1.71300000       0.21040000
H       -1.41670000      -1.19570000       0.91530000
H       -2.11960000      -0.09890000      -0.27330000
H       -1.18260000      -1.48620000      -2.12080000
H        0.10180000      -3.14390000       0.11330000
H        0.22910000      -3.48860000      -1.61600000
H        2.22650000      -2.20330000      -0.73790000
H        1.36920000      -1.35750000      -2.03860000
