23
Properties=species:S:1:pos:R:3 gdb_41813=T pbc="F F F"
C        0.41320000       1.65290000       0.38060000
C        1.56020000       2.07970000      -0.57050000
C        2.15830000       0.76190000      -1.10520000
C        0.91240000      -0.13970000      -1.21860000
C        0.10660000       0.15200000       0.06990000
C        0.47680000      -0.78490000       1.24000000
C        1.97380000      -1.11260000       1.36670000
O        2.83220000      -0.00060000       1.16990000
C        3.23950000       0.19600000      -0.17480000
H        0.71250000       1.76930000       1.42470000
H       -0.47420000       2.27520000       0.23150000
H        1.16200000       2.66230000      -1.40820000
H        2.30740000       2.70450000      -0.07210000
H        2.63530000       0.90560000      -2.08270000
H        0.33050000       0.16610000      -2.09560000
H        1.15130000      -1.20040000      -1.35050000
H       -0.96390000       0.02340000      -0.11810000
H        0.12020000      -0.33300000       2.17320000
H       -0.05590000      -1.73980000       1.13790000
H        2.17970000      -1.49100000       2.37460000
H        2.24770000      -1.91300000       0.66220000
H        3.62610000      -0.75160000      -0.58770000
H        4.07710000       0.90110000      -0.12440000
