17
Properties=species:S:1:pos:R:3 gdb_100438=T pbc="F F F"
C       -0.08500000       1.46420000       0.02670000
C       -0.02490000       0.01430000       0.01160000
C        0.02670000      -1.19500000       0.00130000
C        0.08390000      -2.55290000      -0.01110000
C        0.13570000      -3.76350000      -0.01130000
C        0.18230000      -5.21750000      -0.07680000
O       -1.11930000      -5.81470000       0.01890000
C        0.86690000      -5.71910000      -1.36480000
O        0.83960000      -7.12470000      -1.40860000
H        0.88870000       1.89530000       0.28550000
H       -0.37540000       1.85980000      -0.95300000
H       -0.81400000       1.82220000       0.76220000
H        0.73610000      -5.62060000       0.77950000
H       -1.71810000      -5.28930000      -0.52490000
H        0.35900000      -5.26460000      -2.23230000
H        1.91340000      -5.40020000      -1.38340000
H       -0.06010000      -7.37270000      -1.15720000
