16
Properties=species:S:1:pos:R:3 gdb_24563=T pbc="F F F"
N       -0.07490000       1.34620000       0.02440000
C        0.90150000       2.32990000      -0.10880000
N        2.01860000       2.33750000      -0.70550000
C        2.77920000       1.36700000      -1.29400000
C        3.32970000       0.24690000      -0.76670000
C        3.13260000      -0.35200000       0.52780000
C        1.98700000      -0.75450000       1.12890000
N        0.72070000      -0.86740000       0.62860000
C       -0.09270000      -0.04300000       0.11580000
H       -1.00500000       1.73970000       0.06480000
H        0.54390000       3.28240000       0.28770000
H        3.16420000       1.69220000      -2.25980000
H        4.13640000      -0.18020000      -1.36050000
H        4.04190000      -0.65100000       1.04690000
H        2.09210000      -1.28710000       2.07340000
H       -1.05250000      -0.43810000      -0.22340000
