21
Properties=species:S:1:pos:R:3 gdb_58049=T pbc="F F F"
C       -0.14980000       1.48890000       0.00410000
C        0.06390000      -0.02800000       0.04560000
C        0.69190000      -0.55570000      -1.24960000
C        0.89250000      -0.46590000       1.28130000
C        2.23210000       0.14750000       1.27900000
N        3.28980000       0.61220000       1.26260000
N        0.20720000      -0.10520000       2.52340000
C       -0.71910000      -1.10870000       3.04630000
C        0.58600000      -0.85910000       3.71590000
H        0.79870000       2.01300000      -0.15480000
H       -0.82180000       1.75480000      -0.81750000
H       -0.58270000       1.84810000       0.94020000
H       -0.91160000      -0.51350000       0.18000000
H        1.68290000      -0.11930000      -1.41400000
H        0.80190000      -1.64560000      -1.23280000
H        0.06670000      -0.29590000      -2.10880000
H        1.05200000      -1.55860000       1.21390000
H       -1.64230000      -0.72030000       3.46500000
H       -0.82510000      -2.04260000       2.49620000
H        1.35320000      -1.62420000       3.61330000
H        0.63810000      -0.28270000       4.63400000
