21
Properties=species:S:1:pos:R:3 gdb_94622=T pbc="F F F"
O        0.53870000       0.67870000      -0.78970000
C        0.08050000      -0.25850000       0.13730000
C       -0.41800000       0.19000000       1.54390000
C       -1.54420000      -0.87490000       1.42360000
C       -1.32040000      -0.88860000      -0.11260000
O       -2.07860000       0.09020000      -0.81050000
C       -3.32570000      -0.33860000      -1.26680000
C       -4.56200000      -0.10450000      -0.43600000
C       -4.28830000       0.72710000      -1.67500000
H       -0.25420000       1.09660000      -1.15120000
H        0.84290000      -1.03900000       0.22890000
H        0.28000000       0.11530000       2.38030000
H       -0.81890000       1.20580000       1.50000000
H       -1.26340000      -1.83290000       1.87070000
H       -2.54200000      -0.60490000       1.77040000
H       -1.37800000      -1.84990000      -0.63890000
H       -3.28060000      -1.24940000      -1.86410000
H       -5.35430000      -0.84460000      -0.46290000
H       -4.43050000       0.38870000       0.51970000
H       -3.96940000       1.75130000      -1.51840000
H       -4.89010000       0.56930000      -2.56270000
