20
Properties=species:S:1:pos:R:3 gdb_31242=T pbc="F F F"
C        0.21430000       1.36150000       0.34310000
C       -0.13480000       0.08480000      -0.44020000
C       -1.53190000      -0.40510000      -0.19130000
C       -2.54570000      -0.47510000      -1.12030000
N       -3.68070000      -0.95830000      -0.50950000
C       -3.41240000      -1.19020000       0.81910000
C       -2.09730000      -0.86430000       1.04110000
O       -2.57270000      -0.12330000      -2.43270000
C       -2.24850000      -1.17680000      -3.34070000
H        1.24220000       1.67970000       0.13910000
H       -0.45860000       2.18050000       0.07100000
H        0.12000000       1.20070000       1.42180000
H       -0.01480000       0.27720000      -1.51230000
H        0.59110000      -0.69860000      -0.18350000
H       -4.57520000      -1.03680000      -0.96090000
H       -4.17500000      -1.56230000       1.48370000
H       -1.58160000      -0.94520000       1.98650000
H       -2.29810000      -0.75120000      -4.34530000
H       -1.23910000      -1.56170000      -3.15380000
H       -2.96330000      -2.00620000      -3.26220000
