18
Properties=species:S:1:pos:R:3 gdb_67294=T pbc="F F F"
C       -0.05470000       1.50040000       0.03780000
C       -0.06580000       0.00550000      -0.03150000
C        0.79370000      -0.96130000      -0.92930000
C        1.90760000      -0.90840000       0.10690000
N        0.68210000      -0.89490000       1.01990000
C       -0.02400000      -1.87640000       0.03520000
C       -1.23180000      -0.96820000      -0.00790000
C       -2.58020000      -0.97580000       0.53460000
O       -2.32370000      -1.01680000      -0.89250000
H        0.96510000       1.89670000       0.00670000
H       -0.60940000       1.92100000      -0.80730000
H       -0.52550000       1.84470000       0.96400000
H        0.82940000      -1.00280000      -2.02240000
H        2.53320000      -1.79710000       0.23790000
H        2.51880000      -0.00300000       0.17670000
H        0.06270000      -2.95420000       0.17120000
H       -2.99480000      -1.89080000       0.95400000
H       -3.03170000      -0.05250000       0.89370000
