14
Properties=species:S:1:pos:R:3 gdb_661=T pbc="F F F"
C       -0.01390000       1.52520000       0.01690000
C        1.42850000       2.03680000      -0.03690000
O        2.11440000       1.46950000      -1.14610000
C        2.08030000       0.06800000      -1.09660000
O        0.77850000      -0.45230000      -1.14370000
C        0.00900000      -0.00510000      -0.03430000
H       -0.51410000       1.87410000       0.92730000
H       -0.56640000       1.90820000      -0.84730000
H        1.47450000       3.12150000      -0.16270000
H        1.95480000       1.77850000       0.89870000
H        2.60440000      -0.29740000      -1.98190000
H        2.58910000      -0.28450000      -0.17680000
H        0.43570000      -0.40680000       0.90150000
H       -0.99180000      -0.42650000      -0.15820000
