17
Properties=species:S:1:pos:R:3 gdb_97990=T pbc="F F F"
O        0.14080000       0.86690000       1.04590000
C       -0.07620000       0.17610000      -0.17780000
C       -1.40960000      -0.40920000      -0.18510000
C       -2.50300000      -0.90940000      -0.21190000
C       -3.83920000      -1.48100000      -0.24310000
O       -3.78090000      -2.87520000       0.01100000
C       -5.07070000      -3.45900000      -0.00170000
C       -4.97000000      -4.88860000       0.25380000
C       -4.91840000      -6.06980000       0.46200000
H        1.03570000       1.22080000       1.02030000
H        0.02280000       0.85340000      -1.04200000
H        0.66180000      -0.63010000      -0.32020000
H       -4.47310000      -0.97960000       0.50900000
H       -4.30710000      -1.29100000      -1.22500000
H       -5.71510000      -2.98920000       0.76180000
H       -5.56250000      -3.28930000      -0.97560000
H       -4.86320000      -7.11400000       0.64760000
