17
Properties=species:S:1:pos:R:3 gdb_97630=T pbc="F F F"
C        0.02670000       1.41250000      -0.32300000
N       -0.02980000       0.03420000       0.16010000
C       -1.37600000      -0.52980000       0.20450000
C       -2.05420000      -0.54430000      -1.12500000
N       -2.52530000      -0.51590000      -2.18020000
C       -1.36260000      -1.88390000       0.76240000
C       -1.35000000      -2.99590000       1.22110000
C       -1.35860000      -4.36980000       1.72890000
O       -2.51850000      -5.09610000       1.35960000
H        1.07040000       1.73520000      -0.33370000
H       -0.39660000       1.55820000      -1.32880000
H       -0.51680000       2.06090000       0.37300000
H        0.56320000      -0.56830000      -0.40100000
H       -1.97840000       0.12280000       0.85270000
H       -0.43740000      -4.87840000       1.40270000
H       -1.34450000      -4.36260000       2.82410000
H       -2.60220000      -5.04900000       0.40120000
