18
Properties=species:S:1:pos:R:3 gdb_94164=T pbc="F F F"
C       -0.22150000       1.66860000       0.30310000
C       -0.04720000       0.17840000       0.07060000
O        0.97660000      -0.11510000      -0.92420000
C        1.81230000      -0.78200000       0.05030000
C        0.76570000      -0.60630000       1.15740000
O        1.25990000       0.11200000       2.25490000
C       -1.38750000      -0.48620000      -0.24860000
N       -1.42210000      -1.12850000      -1.43980000
O       -2.31080000      -0.43400000       0.54550000
H        0.69080000       2.10010000       0.71850000
H       -0.45400000       2.16390000      -0.64470000
H       -1.05050000       1.83670000       0.99500000
H        2.05020000      -1.80940000      -0.24400000
H        2.73620000      -0.22700000       0.24560000
H        0.26890000      -1.53070000       1.47130000
H        0.56000000       0.17650000       2.91340000
H       -0.60460000      -1.11600000      -2.02720000
H       -2.27000000      -1.58290000      -1.73410000
