14
Properties=species:S:1:pos:R:3 gdb_85496=T pbc="F F F"
O        0.18400000       1.17270000      -0.61650000
C        0.05090000      -0.06250000       0.03230000
C        0.39840000      -0.10630000       1.52360000
C       -0.53630000      -1.17800000       2.06660000
O       -0.46660000      -1.80830000       3.07340000
O       -1.56420000      -1.36840000       1.16590000
C       -1.44690000      -0.46920000       0.06020000
C       -2.34340000       0.68450000       0.24380000
N       -3.06700000       1.57090000       0.39660000
H        1.11920000       1.37020000      -0.72700000
H        0.59200000      -0.85880000      -0.49850000
H        1.43510000      -0.35060000       1.75650000
H        0.14840000       0.85260000       1.99210000
H       -1.74650000      -1.00510000      -0.84320000
