23
Properties=species:S:1:pos:R:3 gdb_76545=T pbc="F F F"
C       -0.09350000       0.77410000      -2.09390000
C        0.08550000      -0.35560000      -1.10200000
C        1.38770000      -0.61080000      -0.35970000
C        2.62770000       0.23830000      -0.54350000
C        0.18460000      -0.09600000       0.37600000
C        0.00730000       1.22290000       1.12110000
O       -0.77380000       0.56630000       2.14190000
C       -0.60020000      -0.73670000       1.52470000
C       -1.92380000      -1.41290000       1.22590000
H        0.43280000       1.68240000      -1.78760000
H        0.28080000       0.49450000      -3.08480000
H       -1.15270000       1.03320000      -2.20100000
H       -0.46030000      -1.25780000      -1.37170000
H        1.60600000      -1.66410000      -0.18960000
H        2.38980000       1.29840000      -0.66760000
H        3.28840000       0.15440000       0.32660000
H        3.19810000      -0.07740000      -1.42390000
H        0.92480000       1.66800000       1.53030000
H       -0.56600000       2.00610000       0.60750000
H        0.01790000      -1.38200000       2.16770000
H       -2.53700000      -0.79370000       0.56460000
H       -1.76330000      -2.38560000       0.74710000
H       -2.47720000      -1.58160000       2.15510000
