20
Properties=species:S:1:pos:R:3 gdb_126623=T pbc="F F F"
C       -0.02290000       1.51870000       0.06840000
C       -0.06840000      -0.00800000      -0.02340000
C        0.73020000      -0.53840000      -1.22050000
N        0.72810000      -1.98540000      -1.31070000
N        1.75680000      -2.69350000      -0.76290000
C        1.40220000      -3.96220000      -0.91360000
C        0.15620000      -4.09970000      -1.55950000
C       -0.24800000      -2.79730000      -1.79640000
N       -1.43340000      -2.27880000      -2.33020000
H        1.00470000       1.88130000       0.18230000
H       -0.44100000       1.98640000      -0.83050000
H       -0.59880000       1.87840000       0.92590000
H        0.34280000      -0.45830000       0.88670000
H       -1.10510000      -0.35220000      -0.10880000
H        0.33790000      -0.11720000      -2.15500000
H        1.77930000      -0.24170000      -1.14680000
H        2.06130000      -4.74440000      -0.56460000
H       -0.36870000      -5.00240000      -1.82760000
H       -1.99400000      -3.00600000      -2.75410000
H       -1.28030000      -1.54290000      -3.01040000
