23
Properties=species:S:1:pos:R:3 gdb_123265=T pbc="F F F"
C       -0.11170000       1.61960000       1.00250000
O       -0.31320000       0.23300000       0.87810000
C        0.74010000      -0.41550000       0.20400000
C        0.40270000      -1.89690000       0.13660000
O        1.45540000      -2.54580000      -0.53750000
C        1.26200000      -3.93780000      -0.66650000
C        2.45620000      -4.52490000      -1.40520000
C        2.34390000      -6.03160000      -1.59650000
O        3.50260000      -6.46600000      -2.29120000
H       -0.03370000       2.11140000       0.01980000
H       -0.97340000       2.02980000       1.53500000
H        0.80200000       1.85060000       1.57310000
H        0.86690000      -0.01700000      -0.81590000
H        1.69760000      -0.27640000       0.73210000
H        0.27600000      -2.29460000       1.15670000
H       -0.55520000      -2.03480000      -0.39090000
H        1.15510000      -4.40130000       0.33000000
H        0.32620000      -4.14300000      -1.21550000
H        2.54910000      -4.04440000      -2.38490000
H        3.37270000      -4.30070000      -0.84940000
H        2.25790000      -6.52880000      -0.61600000
H        1.42780000      -6.27060000      -2.16190000
H        3.43870000      -7.41720000      -2.41630000
