16
Properties=species:S:1:pos:R:3 gdb_33055=T pbc="F F F"
C       -0.18810000       1.45920000      -0.50460000
O       -0.31860000       0.07060000      -0.70960000
C        0.88090000      -0.62730000      -0.48700000
C        0.62020000      -2.07030000      -0.73150000
C       -0.47300000      -2.74890000      -1.09630000
N       -0.09080000      -4.09210000      -1.16420000
C        1.23740000      -4.23030000      -0.83810000
O        1.92730000      -5.21020000      -0.78010000
O        1.67800000      -2.94110000      -0.56650000
H        0.11110000       1.69090000       0.52920000
H        0.55330000       1.90280000      -1.18680000
H       -1.16420000       1.90800000      -0.70070000
H        1.68400000      -0.26890000      -1.15590000
H        1.24660000      -0.47830000       0.54490000
H       -1.46760000      -2.40300000      -1.31060000
H       -0.66680000      -4.87870000      -1.40430000
