23
Properties=species:S:1:pos:R:3 gdb_39593=T pbc="F F F"
C       -0.02580000       1.58010000      -0.00980000
C        1.45950000       1.89630000      -0.06610000
C        2.19570000       0.88490000       0.40040000
C        1.30540000      -0.23770000       0.88840000
C        1.69790000      -1.70900000       0.75810000
C        0.54160000      -2.57000000       1.30880000
C       -0.82130000      -2.24280000       0.66410000
C       -1.16830000      -0.73860000       0.70270000
C        0.00030000       0.04330000       0.11230000
H       -0.48840000       2.05020000       0.87250000
H       -0.58320000       1.93480000      -0.88360000
H        1.84570000       2.85050000      -0.40750000
H        3.27580000       0.88340000       0.50270000
H        1.11240000      -0.05890000       1.96270000
H        1.88570000      -1.95460000      -0.29600000
H        2.62250000      -1.92930000       1.30500000
H        0.76390000      -3.63470000       1.17500000
H        0.47190000      -2.40370000       2.39280000
H       -0.80540000      -2.56800000      -0.38520000
H       -1.60840000      -2.82670000       1.15460000
H       -2.09640000      -0.55550000       0.14790000
H       -1.35050000      -0.41890000       1.73810000
H        0.17100000      -0.33640000      -0.90730000
