27
Properties=species:S:1:pos:R:3 gdb_121837=T pbc="F F F"
C        0.05720000       1.56340000       0.14890000
C        0.08100000       0.03640000       0.04030000
C        0.66060000      -0.46280000      -1.28820000
C        0.67420000      -1.99200000      -1.38960000
C        1.39800000      -2.57380000      -2.62100000
C        1.35290000      -4.10950000      -2.55160000
C        0.76600000      -2.08150000      -3.93380000
O        2.74880000      -2.10360000      -2.47920000
C        3.66860000      -2.41440000      -3.49930000
H        1.06610000       1.98100000       0.05860000
H       -0.55450000       2.00760000      -0.64450000
H       -0.35450000       1.89140000       1.10880000
H        0.66830000      -0.38070000       0.86920000
H       -0.93770000      -0.35540000       0.16590000
H        0.07640000      -0.03400000      -2.11290000
H        1.68470000      -0.09230000      -1.40660000
H        1.16980000      -2.40150000      -0.50040000
H       -0.35400000      -2.37540000      -1.37970000
H        0.31640000      -4.46040000      -2.53060000
H        1.83610000      -4.57190000      -3.41740000
H        1.85510000      -4.46320000      -1.64630000
H        0.90560000      -1.00470000      -4.05830000
H        1.19860000      -2.58470000      -4.80340000
H       -0.30830000      -2.29070000      -3.93670000
H        3.40270000      -1.96250000      -4.46540000
H        4.63060000      -2.00150000      -3.18330000
H        3.79380000      -3.49640000      -3.64810000
