14
Properties=species:S:1:pos:R:3 gdb_43902=T pbc="F F F"
O        0.01260000       0.17630000      -0.69230000
C        0.01000000       1.25670000      -0.19090000
C       -1.10200000       2.19360000       0.33270000
C       -0.00990000       3.25020000       0.69180000
C        0.65560000       3.01900000       2.06890000
O        1.56490000       2.03770000       1.52260000
C        1.12030000       2.27280000       0.17510000
C       -0.19830000       4.60020000       0.22700000
N       -0.34920000       5.68580000      -0.14210000
H       -1.76600000       2.51560000      -0.47470000
H       -1.70870000       1.82370000       1.16280000
H        1.19680000       3.88960000       2.45290000
H        0.00750000       2.60690000       2.84930000
H        1.92300000       2.51510000      -0.52450000
