15
Properties=species:S:1:pos:R:3 gdb_123646=T pbc="F F F"
C       -0.04390000       1.51640000       0.01030000
C        1.44040000       1.91930000      -0.03800000
N        2.20350000       1.52270000       1.15750000
C        2.31770000       0.70050000      -0.07930000
C        1.39160000      -0.45060000      -0.04550000
C        1.25970000      -1.79540000      -0.03860000
O       -0.04970000      -2.12260000       0.04750000
N       -0.82610000      -0.95200000       0.10560000
C        0.04750000       0.01190000       0.04300000
H       -0.54480000       1.92690000       0.89160000
H       -0.58040000       1.86840000      -0.87710000
H        1.71920000       2.83070000      -0.55600000
H        3.02810000       2.11470000       1.23700000
H        3.25700000       0.67850000      -0.61890000
H        1.94020000      -2.63080000      -0.08940000
