11
Properties=species:S:1:pos:R:3 gdb_21407=T pbc="F F F"
N       -0.10180000       1.31620000       0.14540000
C        0.02260000       0.05870000      -0.00670000
N       -1.10110000      -0.75080000      -0.07240000
C       -1.10300000      -2.11390000      -0.23360000
O       -2.08220000      -2.79650000      -0.28820000
O        0.14330000      -2.70680000      -0.33700000
N        1.33660000      -1.98550000      -0.28350000
C        1.26030000      -0.71940000      -0.13170000
H        0.80770000       1.77360000       0.17530000
H       -2.00820000      -0.30970000       0.00390000
H        2.21410000      -0.20180000      -0.09590000
