17
Properties=species:S:1:pos:R:3 gdb_105329=T pbc="F F F"
C        0.05150000       1.35270000      -0.05500000
O       -0.00100000      -0.05920000       0.10280000
C       -1.28560000      -0.61440000       0.02890000
C       -2.00100000      -0.69850000      -1.36770000
N       -2.04790000      -2.19770000      -1.31230000
C       -0.64330000      -2.63110000      -1.23510000
C       -1.28140000      -2.14240000       0.00090000
C       -2.16840000      -0.07130000       1.07700000
N       -2.84730000       0.37710000       1.89790000
H        1.10690000       1.62680000      -0.01880000
H       -0.36800000       1.66660000      -1.02090000
H       -0.48530000       1.86990000       0.75020000
H       -3.00820000      -0.28180000      -1.37580000
H       -1.41930000      -0.29910000      -2.20400000
H       -0.52760000      -3.70600000      -1.32760000
H        0.12930000      -2.03670000      -1.71500000
H       -1.52780000      -2.77240000       0.84720000
