20
Properties=species:S:1:pos:R:3 gdb_107884=T pbc="F F F"
C       -0.00870000       1.53450000      -0.01530000
C       -0.07660000       0.00270000      -0.02430000
C       -1.47890000      -0.51380000      -0.00370000
O       -2.40270000      -0.17300000      -1.08760000
C       -3.21410000      -1.00360000      -0.21470000
C       -2.03290000      -1.96370000       0.17340000
N       -2.16590000      -1.78040000       1.64920000
C       -3.22780000      -2.55620000       2.28470000
C       -2.57790000      -0.45100000       1.11010000
H        1.02780000       1.87820000      -0.07620000
H       -0.55920000       1.95070000      -0.86340000
H       -0.44570000       1.94280000       0.90160000
H        0.42510000      -0.39250000      -0.91610000
H        0.43950000      -0.41740000       0.84680000
H       -4.24560000      -1.19160000      -0.51040000
H       -1.70310000      -2.89100000      -0.29820000
H       -2.89670000      -3.59340000       2.40010000
H       -3.41780000      -2.15440000       3.28530000
H       -4.18200000      -2.56090000       1.73050000
H       -2.88800000       0.38890000       1.73380000
