18
Properties=species:S:1:pos:R:3 gdb_109854=T pbc="F F F"
O        0.25710000       0.90660000      -0.29880000
C       -0.05640000      -0.24630000       0.46010000
C       -1.49260000      -0.69510000       0.23650000
C       -1.88140000      -1.10770000      -1.16960000
O       -0.87340000      -1.13560000      -2.14080000
C       -1.84870000      -2.14030000      -0.08380000
O       -0.83210000      -3.09560000      -0.26550000
C       -0.33460000      -3.68590000       0.85110000
N        0.54790000      -4.57590000       0.73640000
H        0.17170000       0.63830000      -1.22240000
H        0.63760000      -1.06770000       0.23880000
H        0.08870000       0.02530000       1.51050000
H       -2.24650000      -0.14860000       0.79580000
H       -2.84270000      -0.79950000      -1.57010000
H       -0.44880000      -2.00260000      -2.09800000
H       -2.77960000      -2.55780000       0.29120000
H       -0.78180000      -3.30150000       1.77590000
H        0.82030000      -4.92240000       1.65380000
