21
Properties=species:S:1:pos:R:3 gdb_101158=T pbc="F F F"
C       -0.35400000       1.34000000       0.03800000
C        0.07040000      -0.12710000      -0.11130000
C        0.94490000      -0.33190000      -1.36030000
O        0.30580000       0.08430000      -2.55930000
C        0.80280000      -0.63820000       1.11520000
C        0.05710000      -1.19480000       2.31840000
O       -1.32800000      -1.41060000       2.24150000
C        0.84670000      -2.12290000       1.43560000
O        0.13040000      -3.01680000       0.63920000
H        0.51190000       1.97750000       0.25250000
H       -0.81200000       1.69760000      -0.88730000
H       -1.07050000       1.47660000       0.85600000
H       -0.82810000      -0.74080000      -0.25300000
H        1.85260000       0.27900000      -1.28280000
H        1.25340000      -1.38450000      -1.41470000
H       -0.40240000      -0.54140000      -2.74220000
H        1.70310000      -0.07940000       1.36550000
H        0.41860000      -0.95990000       3.31760000
H       -1.77050000      -0.56610000       2.10820000
H        1.77210000      -2.54910000       1.81250000
H       -0.78860000      -2.96170000       0.93620000
