18
Properties=species:S:1:pos:R:3 gdb_92073=T pbc="F F F"
O        0.05090000       1.40290000       0.12000000
C        0.00720000       0.00620000       0.05070000
C       -1.43350000      -0.53140000       0.03130000
C       -1.39350000      -2.05310000      -0.03150000
C       -1.74990000      -2.80850000      -1.28930000
C       -0.30220000      -2.66910000      -0.87410000
N        0.54580000      -1.75200000      -1.57620000
C        0.73410000      -0.45430000      -1.21910000
O        1.40340000       0.33330000      -1.87030000
H        0.66820000       1.66490000      -0.58440000
H        0.52990000      -0.44180000       0.91420000
H       -1.96350000      -0.18850000       0.92380000
H       -1.95390000      -0.10230000      -0.83120000
H       -1.59020000      -2.56440000       0.90490000
H       -2.21560000      -3.78320000      -1.19580000
H       -2.07270000      -2.22680000      -2.14630000
H        0.20440000      -3.55120000      -0.49240000
H        0.96350000      -2.02990000      -2.45380000
