15
Properties=species:S:1:pos:R:3 gdb_19500=T pbc="F F F"
N        0.29940000      -1.19740000      -0.00140000
C        0.19690000      -0.04430000       0.01080000
C        0.06580000       1.38150000       0.03280000
C        0.41550000       2.21300000       1.27660000
C        1.28690000       1.57090000       2.34460000
C        2.54710000       1.11180000       1.56920000
O        2.54400000       1.80290000       0.30570000
C        1.28190000       2.32100000       0.06840000
H       -0.77850000       1.75130000      -0.54080000
H       -0.28860000       2.98470000       1.56240000
H        1.53190000       2.32680000       3.09630000
H        0.80430000       0.73270000       2.85400000
H        3.48010000       1.36430000       2.08010000
H        2.52790000       0.03400000       1.38780000
H        1.29250000       3.16330000      -0.61330000
