18
Properties=species:S:1:pos:R:3 gdb_24293=T pbc="F F F"
C       -0.01390000       1.48540000       0.09230000
C        1.30420000       0.75910000       0.02950000
C        2.01510000       0.42120000       1.34160000
N        1.05620000      -0.44510000       2.01480000
C        1.00030000      -1.08220000       3.22650000
C       -0.16380000      -1.82280000       3.24140000
C       -0.83640000      -1.61770000       1.99910000
C       -0.05110000      -0.76000000       1.26310000
C       -0.00050000      -0.02830000      -0.02120000
H       -0.33340000       1.91690000       1.03570000
H       -0.30150000       2.05360000      -0.78630000
H        1.91840000       0.87670000      -0.85450000
H        2.95860000      -0.10710000       1.15650000
H        2.23860000       1.30860000       1.94510000
H        1.78090000      -0.97020000       3.96170000
H       -0.49950000      -2.44620000       4.05670000
H       -1.78260000      -2.04020000       1.69860000
H       -0.34890000      -0.49750000      -0.93300000
