17
Properties=species:S:1:pos:R:3 gdb_88339=T pbc="F F F"
C       -1.05900000       0.83490000       0.61530000
N       -0.13720000      -0.24340000       0.25930000
C        0.96350000       0.05000000      -0.62680000
C        1.22740000      -0.27300000       0.81290000
C        1.73900000       0.83600000       1.68890000
O        1.60400000       2.01100000       1.44510000
N        2.38240000       0.35640000       2.84210000
C        2.99120000       1.09630000       3.85450000
O        3.07210000       2.29020000       3.91980000
H       -0.58720000       1.81920000       0.70560000
H       -1.83050000       0.87410000      -0.15940000
H       -1.54420000       0.58500000       1.56380000
H        1.18670000      -0.69720000      -1.38400000
H        1.13540000       1.08660000      -0.91080000
H        1.55980000      -1.27620000       1.07480000
H        2.41290000      -0.64560000       2.96130000
H        3.40890000       0.41220000       4.62180000
