15
Properties=species:S:1:pos:R:3 gdb_149=T pbc="F F F"
C        0.15230000       1.47920000       0.10850000
C       -0.16480000      -0.00180000      -0.12770000
C        0.58260000      -0.58660000      -1.30810000
C        1.98830000      -1.10790000      -1.13890000
C        0.84980000      -2.06680000      -1.39510000
H        1.22070000       1.62690000       0.29760000
H       -0.11440000       2.08360000      -0.76570000
H       -0.40080000       1.87420000       0.96650000
H        0.08190000      -0.57920000       0.77300000
H       -1.24520000      -0.12590000      -0.28070000
H        0.37860000      -0.08880000      -2.25390000
H        2.70840000      -0.93810000      -1.93170000
H        2.41640000      -1.08870000      -0.14140000
H        0.51800000      -2.68950000      -0.57030000
H        0.79090000      -2.55000000      -2.36430000
