17
Properties=species:S:1:pos:R:3 gdb_35323=T pbc="F F F"
N        0.11550000      -1.03920000       0.73820000
C        0.04220000       0.05190000       0.36490000
C       -0.02580000       1.44120000      -0.14100000
N       -0.82580000       2.31170000       0.74730000
C        0.10220000       3.25020000       1.38260000
C       -0.42640000       4.54790000       1.93030000
C        0.03870000       3.47150000       2.88120000
C        1.40110000       3.09500000       0.68400000
C        1.35670000       2.08170000      -0.17610000
H       -0.48300000       1.38640000      -1.13690000
H       -1.48750000       2.82690000       0.17930000
H        0.17740000       5.44100000       1.81070000
H       -1.49570000       4.71730000       1.84940000
H       -0.71760000       2.90600000       3.41240000
H        0.96770000       3.62190000       3.42040000
H        2.26520000       3.71050000       0.90250000
H        2.16240000       1.69510000      -0.78510000
