23
Properties=species:S:1:pos:R:3 gdb_87164=T pbc="F F F"
C        0.07560000       1.36410000      -0.31750000
C        0.24290000      -0.08400000       0.06740000
O        1.57870000      -0.57030000       0.27110000
C        0.66840000      -0.58560000       1.38850000
C        1.02280000       0.34720000       2.52770000
C        0.23930000      -1.96870000       1.83300000
C        0.02130000      -3.08970000       0.77950000
C        0.69560000      -4.08890000       1.75670000
C        1.30890000      -2.87990000       2.51070000
H        0.69150000       2.02880000       0.29050000
H        0.35910000       1.50770000      -1.36570000
H       -0.97260000       1.66550000      -0.21280000
H       -0.37070000      -0.76510000      -0.52690000
H        1.41310000       1.30030000       2.16880000
H        0.14540000       0.54130000       3.15460000
H        1.78960000      -0.10950000       3.16230000
H       -0.63900000      -1.87320000       2.48280000
H       -1.00200000      -3.29850000       0.45780000
H        0.64780000      -2.90940000      -0.09800000
H       -0.04050000      -4.61660000       2.37020000
H        1.38420000      -4.82310000       1.33260000
H        2.30900000      -2.64060000       2.13730000
H        1.33650000      -2.91610000       3.60240000
