18
Properties=species:S:1:pos:R:3 gdb_47717=T pbc="F F F"
N       -0.05670000       1.24530000       0.36970000
C       -0.02390000       0.04130000      -0.02290000
O        1.15200000      -0.55950000      -0.36530000
C        1.14490000      -1.83810000      -1.01490000
C       -0.01780000      -2.68900000      -0.54740000
O       -1.21670000      -1.97580000      -0.79270000
C       -1.26470000      -0.79990000      -0.02930000
C       -2.08260000      -0.84340000       1.25580000
C       -2.60340000      -0.13710000       0.03090000
H        0.88310000       1.64410000       0.36570000
H        1.07650000      -1.68380000      -2.09900000
H        2.10890000      -2.30010000      -0.78340000
H       -0.06810000      -3.61900000      -1.12030000
H        0.08070000      -2.93350000       0.52130000
H       -2.51690000      -1.80540000       1.50470000
H       -1.73770000      -0.24030000       2.08660000
H       -2.60540000       0.94540000       0.02640000
H       -3.38900000      -0.62520000      -0.53430000
