25
Properties=species:S:1:pos:R:3 gdb_115592=T pbc="F F F"
C       -0.06860000       1.61830000      -0.04100000
C        0.04540000       0.09330000       0.06920000
C       -1.31060000      -0.59950000       0.03030000
C       -2.14070000      -0.62470000      -1.28350000
C       -2.62290000      -2.05250000      -0.91380000
C       -1.43100000      -2.15220000       0.09180000
C       -0.23230000      -2.91210000      -0.47500000
O       -1.74610000      -2.56450000       1.41120000
C       -2.18800000      -3.89620000       1.55180000
H        0.91640000       2.09450000      -0.01200000
H       -0.55310000       1.91370000      -0.97810000
H       -0.66330000       2.03000000       0.78200000
H        0.68030000      -0.28060000      -0.74390000
H        0.55680000      -0.16770000       1.00480000
H       -1.93920000      -0.21610000       0.84220000
H       -2.90580000       0.14340000      -1.41180000
H       -1.50060000      -0.62330000      -2.17190000
H       -3.57540000      -2.03080000      -0.37750000
H       -2.67830000      -2.79500000      -1.71420000
H        0.04910000      -2.52130000      -1.45710000
H        0.63210000      -2.82580000       0.19040000
H       -0.46300000      -3.97410000      -0.60480000
H       -2.53960000      -4.00670000       2.58100000
H       -3.02110000      -4.12750000       0.87140000
H       -1.38870000      -4.63110000       1.37990000
