16
Properties=species:S:1:pos:R:3 gdb_34261=T pbc="F F F"
N        0.09640000      -1.12260000      -0.06470000
C        0.04110000       0.03280000      -0.01660000
C       -0.03890000       1.45540000       0.05300000
C       -1.22510000       2.26590000       0.59760000
C       -0.74200000       3.45650000      -0.29380000
O        0.09080000       4.34860000       0.42250000
C        1.22340000       3.59100000       0.86560000
C        1.22210000       2.33150000       0.00680000
C        0.19420000       2.48500000      -1.06160000
H       -2.17370000       1.85210000       0.24870000
H       -1.27520000       2.45020000       1.67420000
H       -1.49520000       4.02920000      -0.83040000
H        2.12830000       4.18640000       0.70330000
H        1.14340000       3.36980000       1.93770000
H        2.15060000       1.81760000      -0.20730000
H        0.33120000       2.33940000      -2.12350000
