23
Properties=species:S:1:pos:R:3 gdb_110011=T pbc="F F F"
C       -0.42340000       1.28110000       0.06810000
O        0.43330000       0.18500000      -0.16200000
C        0.89360000      -0.48030000       1.01910000
C        0.16780000      -1.82820000       1.31590000
C       -1.27990000      -1.91340000       0.83630000
C        1.10060000      -2.91600000       0.72240000
C        2.42580000      -2.21180000       0.60680000
C        2.33330000      -0.89260000       0.78150000
C        3.41690000       0.13220000       0.67530000
H        0.05410000       2.04630000       0.69960000
H       -0.64790000       1.72360000      -0.90640000
H       -1.37000000       0.98660000       0.54330000
H        0.79690000       0.21670000       1.86560000
H        0.18670000      -1.94840000       2.40620000
H       -1.34450000      -1.69690000      -0.23370000
H       -1.68260000      -2.91740000       1.00690000
H       -1.92820000      -1.20700000       1.36560000
H        1.14210000      -3.80840000       1.35850000
H        0.75150000      -3.25840000      -0.26250000
H        3.34790000      -2.73580000       0.37340000
H        4.37910000      -0.31990000       0.41960000
H        3.16660000       0.87030000      -0.09550000
H        3.54010000       0.68510000       1.61580000
