21
Properties=species:S:1:pos:R:3 gdb_40900=T pbc="F F F"
C        0.06670000       1.54110000      -0.15940000
C        1.59410000       1.52810000       0.14710000
C        1.43080000       0.09430000       0.67820000
C        0.00800000       0.00720000       0.10460000
C        2.42760000      -1.02360000       0.77150000
C        3.89310000      -0.63020000       0.79940000
O        3.99230000       0.44010000       1.73550000
C        2.97900000       0.27860000       2.72470000
C        1.82920000      -0.42830000       2.03190000
H       -0.50240000       2.11360000       0.57720000
H       -0.22870000       1.87400000      -1.15660000
H        2.21200000       1.57980000      -0.75480000
H        1.96100000       2.27700000       0.85210000
H       -0.77490000      -0.34600000       0.78210000
H       -0.04370000      -0.58170000      -0.81700000
H        2.15660000      -2.01430000       0.42150000
H        4.50960000      -1.49090000       1.10720000
H        4.28050000      -0.25610000      -0.15480000
H        3.33830000      -0.32740000       3.57280000
H        2.73700000       1.27950000       3.09990000
H        1.10590000      -0.96870000       2.63360000
