20
Properties=species:S:1:pos:R:3 gdb_88181=T pbc="F F F"
C       -0.09390000       1.52240000      -0.08950000
C        0.02180000       0.01970000       0.03660000
C        1.32990000      -0.69530000      -0.18990000
C        0.71900000      -0.65480000       1.19970000
C        1.36900000       0.15020000       2.31050000
C        2.12820000      -0.81310000       3.21810000
O        1.26680000      -1.85730000       3.69320000
C        0.38280000      -2.33120000       2.78020000
N        0.10010000      -1.87960000       1.63170000
H        0.81710000       2.03470000       0.23440000
H       -0.27300000       1.80810000      -1.13200000
H       -0.92580000       1.91220000       0.50780000
H       -0.85440000      -0.53080000      -0.29340000
H        1.31920000      -1.64550000      -0.71020000
H        2.21690000      -0.09090000      -0.35840000
H        2.05660000       0.90890000       1.92670000
H        0.60300000       0.66780000       2.90140000
H        2.96420000      -1.27340000       2.67550000
H        2.52160000      -0.32240000       4.11120000
H       -0.11010000      -3.22110000       3.16590000
