19
Properties=species:S:1:pos:R:3 gdb_80028=T pbc="F F F"
O        0.14310000       1.45690000      -0.11180000
C        0.04700000       0.07580000      -0.02560000
C        0.13780000      -0.67040000       1.36840000
C       -1.04970000      -0.02590000       2.09380000
C       -2.01970000      -0.01620000       1.16830000
C       -1.35760000      -0.65530000      -0.05840000
C       -0.59000000      -1.81830000       0.62190000
C       -0.00110000      -3.03810000      -0.00830000
C       -1.05030000      -3.15350000       1.09010000
H       -0.47510000       1.81670000       0.53990000
H        0.74230000      -0.33860000      -0.75880000
H        1.07830000      -0.81200000       1.90000000
H       -1.06870000       0.31940000       3.11780000
H       -3.03800000       0.33920000       1.23890000
H       -1.93420000      -0.78160000      -0.97430000
H       -0.29620000      -3.29460000      -1.02120000
H        1.02180000      -3.30790000       0.23620000
H       -0.72620000      -3.49980000       2.06620000
H       -2.04410000      -3.48650000       0.80890000
