18
Properties=species:S:1:pos:R:3 gdb_98094=T pbc="F F F"
C       -0.02250000       1.39200000       0.00420000
N       -0.15460000      -0.04590000       0.07260000
C       -1.34460000      -0.66860000       0.21360000
O       -2.42700000      -0.11410000       0.31610000
C       -1.21140000      -2.19440000       0.21890000
N       -0.06930000      -2.71240000      -0.02600000
N       -2.36330000      -2.86220000       0.58450000
C       -3.64090000      -2.75640000      -0.08400000
C       -2.87000000      -4.04390000      -0.08500000
H        0.36970000       1.71220000      -0.96820000
H       -1.01440000       1.82360000       0.14580000
H        0.64590000       1.76530000       0.78770000
H        0.64520000      -0.65550000      -0.02810000
H       -0.10350000      -3.73270000       0.00980000
H       -4.50150000      -2.63450000       0.56610000
H       -3.68070000      -2.18950000      -1.00830000
H       -2.38400000      -4.34090000      -1.01270000
H       -3.17160000      -4.86350000       0.56050000
