18
Properties=species:S:1:pos:R:3 gdb_46378=T pbc="F F F"
N       -0.33520000       0.92310000      -0.87690000
C       -0.18950000      -0.16950000      -0.28090000
O        0.94210000      -0.80540000       0.18580000
C        0.14900000      -1.87070000       0.80200000
C       -1.13820000      -1.25610000       0.22530000
O       -2.07050000      -0.88940000       1.20290000
C       -3.19540000      -0.23370000       0.67510000
C       -4.33360000      -1.06990000       0.14910000
C       -4.44640000      -0.34700000       1.47860000
H        0.55740000       1.40190000      -1.01230000
H        0.44780000      -2.85170000       0.42820000
H        0.20460000      -1.82570000       1.89150000
H       -1.60590000      -1.83280000      -0.58320000
H       -2.96370000       0.70390000       0.17680000
H       -4.89840000      -0.70250000      -0.70030000
H       -4.21540000      -2.14720000       0.18890000
H       -4.39140000      -0.95530000       2.37410000
H       -5.09070000       0.52120000       1.55460000
