19
Properties=species:S:1:pos:R:3 gdb_35895=T pbc="F F F"
C        0.00170000      -1.21180000      -0.12870000
C        0.00540000      -0.01250000      -0.04950000
C        0.01330000       1.44500000       0.05740000
C       -0.76850000       1.94360000       1.29470000
C       -0.68790000       3.47010000       1.40100000
C        0.75170000       3.96670000       1.62170000
C        1.78150000       3.20990000       0.80110000
O        2.14610000       1.90880000       1.29100000
C        1.44070000       1.98540000       0.05670000
H        0.00070000      -2.27130000      -0.19930000
H       -0.47400000       1.85480000      -0.84070000
H       -1.80840000       1.61510000       1.21120000
H       -0.34800000       1.47300000       2.18870000
H       -1.08580000       3.90930000       0.47640000
H       -1.33020000       3.82650000       2.21290000
H        0.81980000       5.03430000       1.38530000
H        1.03170000       3.86350000       2.67720000
H        2.63640000       3.79100000       0.45360000
H        2.03110000       1.71370000      -0.81900000
