18
Properties=species:S:1:pos:R:3 gdb_110659=T pbc="F F F"
C       -0.44800000       1.20190000      -0.14710000
O       -0.08110000      -0.16320000      -0.09520000
C        0.75590000      -0.55460000      -1.12750000
C        1.39680000      -1.98780000      -1.06900000
C        1.26530000      -2.14020000      -2.53670000
N        0.72830000      -3.19740000      -1.70830000
C       -0.73520000      -3.19390000      -1.99370000
C       -1.03550000      -1.72920000      -2.28130000
C        0.13750000      -1.08820000      -2.45350000
H        0.43580000       1.85710000      -0.12840000
H       -1.02980000       1.42980000      -1.05140000
H       -1.06020000       1.40530000       0.73400000
H        1.58160000       0.16520000      -1.25040000
H        2.24390000      -2.23680000      -0.43890000
H        2.01400000      -2.28950000      -3.30460000
H       -0.90340000      -3.92510000      -2.79450000
H       -1.32140000      -3.50970000      -1.12310000
H       -1.89900000      -1.25540000      -1.82530000
