14
Properties=species:S:1:pos:R:3 gdb_124222=T pbc="F F F"
C       -0.37710000       1.01370000       0.02080000
C        0.76310000       0.06400000       0.25940000
N        1.70070000       0.12480000       1.09650000
O        0.84770000      -0.99190000      -0.65420000
C       -0.18720000      -1.87530000      -0.76680000
C        0.13510000      -2.83260000      -1.81130000
N       -0.73200000      -3.77790000      -2.05500000
N       -1.49350000      -4.58780000      -2.25260000
O       -1.19120000      -1.86270000      -0.09660000
H       -0.28870000       1.88610000       0.67090000
H       -0.37650000       1.34400000      -1.02320000
H       -1.32650000       0.50910000       0.21070000
H        1.60570000       0.96160000       1.67130000
H        1.04820000      -2.83680000      -2.38480000
