23
Properties=species:S:1:pos:R:3 gdb_73815=T pbc="F F F"
C        0.07530000       1.51450000      -0.03030000
C       -0.01050000       0.02070000      -0.06530000
C       -1.10030000      -0.75930000       0.01570000
C       -2.52880000      -0.32790000       0.14730000
C       -0.72030000      -2.20990000      -0.01600000
C       -1.25740000      -3.18690000       1.01580000
C       -1.66630000      -3.31030000      -0.42970000
C        0.75300000      -2.23580000      -0.43480000
C        1.25930000      -0.80410000      -0.15090000
H        0.69400000       1.85230000       0.81210000
H        0.55560000       1.90300000      -0.93820000
H       -0.90180000       1.99480000       0.06100000
H       -2.62640000       0.75690000       0.22620000
H       -3.12430000      -0.65310000      -0.71500000
H       -3.00070000      -0.76550000       1.03630000
H       -0.56500000      -3.91830000       1.42020000
H       -1.99830000      -2.83790000       1.72750000
H       -2.68630000      -3.05040000      -0.69310000
H       -1.25620000      -4.13020000      -1.01150000
H        1.32910000      -3.00680000       0.08480000
H        0.82420000      -2.44560000      -1.50830000
H        1.94300000      -0.44020000      -0.92790000
H        1.81740000      -0.74390000       0.79540000
