16
Properties=species:S:1:pos:R:3 gdb_66546=T pbc="F F F"
C       -0.02600000       1.42920000       0.01470000
C        0.05240000      -0.05890000       0.11020000
C        1.00290000      -0.94460000      -0.64450000
C        1.03390000      -2.21530000       0.22140000
C       -0.52630000      -2.02550000       0.16680000
C       -0.32120000      -0.96570000       1.30640000
C        0.98270000      -1.70330000       1.67810000
O        1.58410000      -1.92510000       2.68490000
N       -0.46640000      -0.98150000      -0.95550000
H        0.67030000       1.90420000       0.71450000
H        0.23040000       1.75470000      -0.99840000
H       -1.03580000       1.78800000       0.23880000
H        1.73880000      -0.59040000      -1.35590000
H        1.58400000      -3.09550000      -0.09800000
H       -1.26430000      -2.82240000       0.16480000
H       -1.06840000      -0.64460000       2.02660000
