17
Properties=species:S:1:pos:R:3 gdb_95130=T pbc="F F F"
O        0.35920000       1.19190000      -0.37310000
C        0.01990000      -0.16660000      -0.19290000
C        0.75740000      -0.84760000       0.99240000
C       -0.19820000      -1.92900000       1.53750000
C       -1.58040000      -1.41270000       1.18220000
O       -1.80010000      -0.03440000       1.46980000
C       -1.45380000      -0.39370000       0.11450000
C       -2.52850000      -0.20810000      -0.89750000
O       -2.33260000      -0.18150000      -2.08580000
H        0.10530000       1.65820000       0.43220000
H        0.24790000      -0.65360000      -1.14620000
H        1.72890000      -1.24660000       0.69550000
H        0.93790000      -0.08810000       1.75840000
H       -0.05150000      -2.89150000       1.03370000
H       -0.08300000      -2.10250000       2.61190000
H       -2.45930000      -2.04700000       1.27530000
H       -3.54430000      -0.11070000      -0.45430000
