20
Properties=species:S:1:pos:R:3 gdb_96021=T pbc="F F F"
O        0.20790000       0.97210000      -0.72910000
C        0.04610000      -0.25650000      -0.06470000
C        0.52180000      -0.25450000       1.40190000
O       -0.20750000      -1.29560000       2.02540000
C       -1.53880000      -1.18530000       1.54270000
C       -1.44480000      -0.72480000       0.06840000
N       -2.33100000       0.40710000      -0.18870000
C       -2.90330000       0.50210000      -1.53100000
C       -3.74960000       0.10240000      -0.37580000
H       -0.53870000       1.52050000      -0.45040000
H        0.61520000      -0.99800000      -0.63260000
H        1.58730000      -0.46160000       1.52260000
H        0.29780000       0.72770000       1.85240000
H       -2.02100000      -2.15750000       1.67050000
H       -2.10220000      -0.43150000       2.11470000
H       -1.65510000      -1.55930000      -0.61710000
H       -2.97530000       1.50350000      -1.94410000
H       -2.63480000      -0.26840000      -2.25020000
H       -4.05520000      -0.94040000      -0.31810000
H       -4.44600000       0.80640000       0.06950000
