24
Properties=species:S:1:pos:R:3 gdb_101173=T pbc="F F F"
C       -0.39100000       1.45180000       0.76560000
O       -0.63890000       0.11810000       0.38760000
C        0.22830000      -0.39100000      -0.62180000
C        1.65320000      -0.61980000      -0.10540000
C       -0.39910000      -1.69750000      -1.07290000
C       -1.59600000      -1.74550000      -1.96590000
C       -2.27630000      -0.50300000      -2.50100000
N       -0.29520000      -2.23430000      -2.43290000
C        0.43480000      -1.53580000      -3.47880000
H        0.56150000       1.57540000       1.30080000
H       -0.38530000       2.12780000      -0.10480000
H       -1.20210000       1.75070000       1.43470000
H        0.26610000       0.33070000      -1.45120000
H        1.63890000      -1.30600000       0.74740000
H        2.27400000      -1.06080000      -0.89140000
H        2.12820000       0.31350000       0.20940000
H       -0.31560000      -2.46790000      -0.30500000
H       -2.29930000      -2.55920000      -1.78620000
H       -1.59440000       0.33450000      -2.65760000
H       -2.77160000      -0.71390000      -3.45530000
H       -3.04200000      -0.17350000      -1.79190000
H        0.33330000      -0.44120000      -3.49630000
H        1.49990000      -1.77330000      -3.38690000
H        0.09490000      -1.91420000      -4.44860000
