18
Properties=species:S:1:pos:R:3 gdb_80374=T pbc="F F F"
C       -0.18120000       1.47340000      -0.18480000
N        0.09220000       0.06050000       0.03820000
C        1.37570000      -0.56770000      -0.14280000
C        2.55060000       0.29380000       0.35860000
C        1.90810000       0.29490000       1.78820000
N        2.66200000      -0.57950000       2.68600000
C        1.62110000       1.60120000       2.39910000
N        1.41980000       2.61220000       2.92550000
C        0.70080000      -0.50270000       1.20580000
H        0.63910000       2.15690000       0.06670000
H       -0.42990000       1.60890000      -1.24150000
H       -1.05170000       1.76030000       0.41120000
H        1.46130000      -1.40130000      -0.83030000
H        3.49780000      -0.24610000       0.38020000
H        2.68870000       1.26400000      -0.12350000
H        3.53630000      -0.13200000       2.95000000
H        2.14020000      -0.71790000       3.54820000
H        0.17940000      -1.26100000       1.78110000
