17
Properties=species:S:1:pos:R:3 gdb_79272=T pbc="F F F"
O        0.00670000       1.51510000      -0.35310000
C        0.04210000       0.11620000      -0.23860000
C       -1.28500000      -0.59500000      -0.05650000
C       -1.87910000      -0.85110000      -1.44640000
C       -0.91740000      -0.25700000      -2.47040000
C        0.22530000      -0.74480000      -1.52060000
C        1.58240000      -1.01880000      -2.05800000
O        2.57370000      -0.42550000      -1.70040000
C       -0.81810000      -1.76880000      -0.89530000
H        0.91570000       1.81850000      -0.45500000
H        0.75930000      -0.21150000       0.52510000
H       -1.89760000      -0.63450000       0.83450000
H       -2.93490000      -1.05560000      -1.56660000
H       -0.92700000      -0.82390000      -3.40550000
H       -0.94380000       0.81840000      -2.66530000
H        1.64200000      -1.80630000      -2.84330000
H       -0.77980000      -2.82700000      -0.68620000
