19
Properties=species:S:1:pos:R:3 gdb_39981=T pbc="F F F"
C        0.02950000       1.50040000       0.00410000
O        1.19650000       0.66790000       0.00570000
C       -0.09110000       0.04160000       0.00660000
C       -0.46560000      -0.80280000       1.23180000
C       -0.64710000      -2.20220000       0.64740000
C       -1.66040000      -2.42760000      -0.46570000
C       -1.99350000      -1.11570000      -1.17680000
C       -0.46120000      -0.78760000      -1.20730000
C       -0.18280000      -2.26050000      -0.78320000
H       -0.14520000       2.06120000       0.92210000
H       -0.14370000       2.06120000      -0.91450000
H        0.35260000      -0.77350000       1.95730000
H       -1.36720000      -0.42900000       1.72930000
H       -0.46430000      -3.06340000       1.28010000
H       -2.26070000      -3.32970000      -0.48860000
H       -2.37430000      -1.29600000      -2.18510000
H       -2.65280000      -0.39890000      -0.67270000
H       -0.05280000      -0.41050000      -2.14320000
H        0.54240000      -2.94950000      -1.19320000
