16
Properties=species:S:1:pos:R:3 gdb_15956=T pbc="F F F"
C       -0.07970000      -1.13660000      -0.41200000
C       -0.03170000       0.02890000      -0.12090000
C        0.03960000       1.44560000       0.19670000
O        0.03340000       1.73160000       1.62060000
C        1.28870000       2.44780000       1.54730000
C        1.40480000       2.14330000       0.06010000
C        2.59410000       1.69360000      -0.72220000
C        1.89940000       2.99360000      -1.06580000
H       -0.13070000      -2.16880000      -0.65750000
H       -0.78050000       1.97940000      -0.30430000
H        1.16840000       3.50660000       1.81130000
H        2.05220000       1.99730000       2.19370000
H        3.56560000       1.74240000      -0.24060000
H        2.46390000       0.84700000      -1.38840000
H        1.30510000       3.03210000      -1.97340000
H        2.39810000       3.92580000      -0.81910000
