18
Properties=species:S:1:pos:R:3 gdb_73964=T pbc="F F F"
N        0.13800000       1.40490000       0.08020000
C       -0.00170000       0.04140000       0.02770000
C       -1.17810000      -0.64370000       0.11560000
C       -1.19580000      -2.16010000       0.07570000
O        0.02000000      -2.73230000      -0.37450000
C        1.13230000      -2.17950000       0.28950000
C        1.30340000      -0.70940000      -0.09780000
C       -2.46810000      -0.00570000       0.27210000
O       -3.52310000      -0.60820000       0.37150000
H        1.00710000       1.79130000      -0.25020000
H       -0.66510000       1.99160000      -0.07390000
H       -1.45570000      -2.55950000       1.07110000
H       -1.97550000      -2.50000000      -0.61080000
H        1.02010000      -2.26820000       1.38290000
H        2.00730000      -2.76380000      -0.00870000
H        1.65580000      -0.63840000      -1.13560000
H        2.06270000      -0.23150000       0.53410000
H       -2.47200000       1.10940000       0.30510000
