18
Properties=species:S:1:pos:R:3 gdb_93545=T pbc="F F F"
C        0.18000000       1.62410000       0.00720000
C       -0.10920000       0.11970000      -0.06860000
C        0.75350000      -0.54120000      -1.14280000
O        0.28730000      -1.84870000      -1.48790000
C        0.62730000      -2.90620000      -0.73630000
N        0.71000000      -4.04120000      -1.29840000
N        0.85060000      -2.66570000       0.63050000
C        0.47220000      -1.61900000       1.47730000
N        0.05270000      -0.44610000       1.26160000
H        1.23250000       1.80540000       0.25060000
H       -0.04780000       2.12070000      -0.94100000
H       -0.42590000       2.07430000       0.79610000
H       -1.15820000      -0.01760000      -0.36790000
H        0.69310000       0.02380000      -2.07590000
H        1.80470000      -0.57760000      -0.83130000
H        0.86620000      -4.78690000      -0.62410000
H        1.16680000      -3.48710000       1.12280000
H        0.59690000      -1.92600000       2.51840000
