17
Properties=species:S:1:pos:R:3 gdb_10091=T pbc="F F F"
C        2.64390000      -1.17160000       1.33430000
C        2.68880000      -0.25670000       0.11340000
C        2.84560000       1.20120000       0.43880000
O        2.75820000       1.99170000      -0.72950000
C        3.87750000       2.63040000      -1.15810000
O        3.87960000       3.34090000      -2.11470000
N        2.98120000       1.65880000       1.59920000
C        3.06250000       3.07810000       1.88500000
H        2.52410000      -2.21270000       1.02190000
H        3.56110000      -1.08730000       1.92190000
H        1.81090000      -0.90690000       1.99000000
H        3.50910000      -0.53920000      -0.56120000
H        1.77940000      -0.35710000      -0.49330000
H        4.75960000       2.40380000      -0.53280000
H        2.36930000       3.30240000       2.70190000
H        4.06740000       3.31500000       2.25160000
H        2.83030000       3.73470000       1.03850000
