16
Properties=species:S:1:pos:R:3 gdb_125488=T pbc="F F F"
C       -0.14890000       1.50940000      -0.16120000
C       -0.05980000       0.02160000      -0.10280000
N       -0.04520000      -0.79820000      -1.14210000
C        0.04400000      -2.02720000      -0.56720000
N        0.08210000      -2.03090000       0.75320000
N        0.00750000      -0.70280000       1.04410000
C        0.08830000      -0.26340000       2.41680000
C        1.52880000      -0.20350000       2.92860000
O        1.86600000       0.48740000       3.85040000
H        0.72120000       1.99080000       0.29770000
H       -0.19840000       1.80980000      -1.20800000
H       -1.04340000       1.88330000       0.34910000
H        0.07760000      -2.94430000      -1.13640000
H       -0.37780000       0.71710000       2.53310000
H       -0.46120000      -0.97990000       3.03680000
H        2.23400000      -0.86760000       2.38380000
