11
Properties=species:S:1:pos:R:3 gdb_130795=T pbc="F F F"
O        0.01980000      -0.01070000       0.36770000
C        0.03040000       1.14280000       0.04850000
O       -1.14080000       1.75590000      -0.33270000
N       -1.22830000       3.14500000      -0.73500000
N       -0.19640000       3.82050000      -0.73760000
C        1.03950000       3.31240000      -0.37410000
C        1.21560000       2.02600000       0.01570000
C        2.46980000       1.49660000       0.38840000
C        3.54270000       1.05230000       0.70510000
H        1.85380000       4.02350000      -0.42560000
H        4.48430000       0.64780000       0.98780000
