17
Properties=species:S:1:pos:R:3 gdb_47863=T pbc="F F F"
N       -0.11080000       0.90910000       0.97240000
C       -0.04410000      -0.11180000       0.21020000
N       -1.18160000      -0.70620000      -0.28190000
C       -1.17780000      -1.60870000      -1.42320000
C       -0.72440000      -3.02370000      -1.02160000
C        0.39880000      -2.94650000       0.00680000
O        1.43730000      -2.03430000      -0.39860000
C        1.31470000      -0.70460000      -0.19210000
O        2.27430000       0.00660000      -0.31140000
H        0.83180000       1.20540000       1.22180000
H       -2.01960000      -0.17880000      -0.08890000
H       -2.18820000      -1.63550000      -1.83670000
H       -0.52540000      -1.22710000      -2.21910000
H       -1.55220000      -3.58480000      -0.57330000
H       -0.39850000      -3.56920000      -1.91320000
H        0.00820000      -2.64480000       0.98250000
H        0.90290000      -3.90760000       0.12310000
