19
Properties=species:S:1:pos:R:3 gdb_72173=T pbc="F F F"
O       -0.06240000       1.39400000       0.02890000
C       -0.00300000       0.00410000      -0.03750000
C        0.21530000      -0.79900000      -1.34300000
C       -0.43820000      -1.94190000      -0.51970000
C        0.64490000      -2.20470000       0.54860000
C        0.74060000      -0.75560000       1.11340000
C       -0.29240000      -0.63780000       2.23800000
O       -1.53170000      -0.95990000       1.57870000
C       -1.28370000      -0.81830000       0.19520000
H        0.83570000       1.74160000      -0.00330000
H       -0.42240000      -0.42280000      -2.14650000
H        1.23340000      -0.95670000      -1.70840000
H       -0.90430000      -2.79840000      -1.00290000
H        0.33710000      -2.92360000       1.31270000
H        1.57850000      -2.55580000       0.10000000
H        1.74070000      -0.39760000       1.36570000
H       -0.12910000      -1.35020000       3.05330000
H       -0.34020000       0.37900000       2.65170000
H       -2.18480000      -0.50200000      -0.32970000
