16
Properties=species:S:1:pos:R:3 gdb_62907=T pbc="F F F"
C       -0.00070000       1.63720000      -0.00350000
C       -0.05920000       0.12050000      -0.00500000
O       -1.34710000      -0.36440000      -0.24510000
C        1.16930000      -0.65010000      -0.62360000
O        1.96310000      -0.19140000       0.53170000
C        0.69040000      -0.65130000       1.11760000
C        0.81690000      -1.92130000       0.21080000
C       -0.27450000      -2.82300000      -0.11100000
N       -1.06870000      -3.62410000      -0.36360000
H        1.00320000       1.99440000       0.22390000
H       -0.29320000       2.02500000      -0.98700000
H       -0.70460000       2.03470000       0.73370000
H       -1.70670000       0.06430000      -1.02890000
H        1.62990000      -0.59770000      -1.61050000
H        0.57790000      -0.60490000       2.20060000
H        1.71500000      -2.48930000       0.45910000
