17
Properties=species:S:1:pos:R:3 gdb_70111=T pbc="F F F"
C       -0.08450000       1.48420000      -0.00320000
C        0.08770000      -0.01070000       0.03030000
N       -0.73810000      -0.84250000       0.92150000
C        0.73900000      -0.77640000       1.12920000
C        1.43540000      -1.93820000       0.50550000
C        1.24220000      -1.95670000      -0.81230000
C        0.44100000      -0.74530000      -1.28360000
C       -0.73470000      -1.09020000      -2.08470000
N       -1.65370000      -1.34340000      -2.73810000
H        0.78270000       1.97490000      -0.45800000
H       -0.97070000       1.76230000      -0.58490000
H       -0.20530000       1.88560000       1.00800000
H       -1.19790000      -0.22860000       1.59300000
H        1.12310000      -0.29250000       2.02100000
H        1.98730000      -2.67880000       1.07100000
H        1.57530000      -2.71870000      -1.50530000
H        1.07330000      -0.09720000      -1.90790000
