18
Properties=species:S:1:pos:R:3 gdb_82788=T pbc="F F F"
O        0.08220000       1.46280000      -0.12640000
C        0.02260000       0.06560000       0.01950000
C        0.22070000      -0.58150000       1.42520000
C       -0.25560000       0.37730000       2.52200000
C       -1.76220000       0.23250000       2.42450000
C       -2.39810000       0.03440000       1.05190000
C       -2.09890000      -1.14540000       1.96600000
N       -0.93670000      -1.54800000       1.11080000
C       -1.38060000      -0.54040000       0.06260000
H        1.00090000       1.71980000      -0.25180000
H        0.63020000      -0.44580000      -0.73800000
H        1.17090000      -1.07720000       1.63130000
H        0.09420000       0.07110000       3.51410000
H        0.09410000       1.39500000       2.32700000
H       -2.40410000       0.70440000       3.16080000
H       -3.34630000       0.49350000       0.80060000
H       -2.72330000      -1.87590000       2.46540000
H       -1.82000000      -0.94440000      -0.85340000
