17
Properties=species:S:1:pos:R:3 gdb_99504=T pbc="F F F"
C        0.06410000       1.35310000      -0.16550000
O       -0.06880000      -0.07730000      -0.21210000
C       -1.26570000      -0.55870000       0.13660000
O       -2.20370000       0.11070000       0.48190000
C       -1.28480000      -2.09280000       0.09480000
C       -2.72910000      -2.63750000       0.07520000
N       -2.71160000      -4.08030000       0.28820000
C       -0.50390000      -2.63320000      -1.01900000
N        0.06220000      -3.10590000      -1.90870000
H        1.08100000       1.56300000      -0.49410000
H       -0.66220000       1.82400000      -0.83170000
H       -0.09650000       1.71750000       0.85180000
H       -0.81320000      -2.44150000       1.02350000
H       -3.26140000      -2.15830000       0.89960000
H       -3.21360000      -2.30700000      -0.85680000
H       -3.65860000      -4.41960000       0.41940000
H       -2.34640000      -4.55340000      -0.53380000
