18
Properties=species:S:1:pos:R:3 gdb_32137=T pbc="F F F"
C       -0.16470000       1.40210000      -0.00280000
O       -0.12890000      -0.01200000       0.09840000
C        0.60400000      -0.56350000       1.09210000
C        1.33890000       0.14810000       2.04040000
C        2.03800000      -0.58750000       2.99630000
N        2.05770000      -1.91470000       3.07280000
C        1.34580000      -2.59370000       2.15380000
C        1.38450000      -4.09590000       2.26230000
C        0.61330000      -1.96060000       1.15750000
H        0.83510000       1.81830000      -0.17720000
H       -0.80280000       1.62730000      -0.85830000
H       -0.59200000       1.85920000       0.89810000
H        1.37920000       1.22870000       2.05290000
H        2.61970000      -0.05730000       3.74810000
H        0.78520000      -4.57630000       1.48520000
H        2.41580000      -4.45460000       2.18330000
H        1.01190000      -4.41440000       3.24110000
H        0.04640000      -2.52530000       0.42670000
