16
Properties=species:S:1:pos:R:3 gdb_49715=T pbc="F F F"
N       -0.07680000       1.15580000      -0.51700000
C       -0.01300000      -0.04110000      -0.14660000
C       -1.03340000      -1.09550000       0.28570000
N       -1.43570000      -1.95210000      -0.86060000
C       -0.43670000      -2.99240000      -0.49940000
C        0.17940000      -2.04670000       0.56010000
N        1.04740000      -0.97800000       0.04330000
C        2.38880000      -0.89420000      -0.20430000
O        2.93530000       0.09410000      -0.64190000
H        0.85100000       1.51140000      -0.75550000
H       -1.79310000      -0.81930000       1.01580000
H       -2.39810000      -2.26230000      -0.82620000
H       -0.86430000      -3.88700000      -0.02990000
H        0.21350000      -3.30020000      -1.32460000
H        0.46810000      -2.44370000       1.53230000
H        2.92450000      -1.83020000       0.04930000
