21
Properties=species:S:1:pos:R:3 gdb_40720=T pbc="F F F"
C       -0.19770000       1.33950000      -0.23160000
C        1.24310000       1.10480000       0.15380000
C        0.28200000      -0.05580000       0.07840000
C       -0.16750000      -0.76410000       1.33270000
C       -1.51060000      -1.56330000       1.18460000
C       -0.94810000      -2.96390000       1.49780000
C       -0.09000000      -2.74240000       2.76310000
C        0.72290000      -1.98010000       1.69650000
O        0.29020000      -2.97800000       0.71510000
H       -0.84060000       1.82750000       0.49420000
H       -0.42150000       1.59400000      -1.26170000
H        2.00420000       1.19750000      -0.61310000
H        1.56320000       1.43810000       1.13620000
H        0.40090000      -0.72310000      -0.77050000
H       -0.21100000      -0.04920000       2.16240000
H       -2.28770000      -1.24710000       1.88570000
H       -1.91150000      -1.50740000       0.17010000
H       -1.58030000      -3.83840000       1.34380000
H       -0.51320000      -2.19350000       3.60900000
H        0.41050000      -3.65620000       3.08440000
H        1.80290000      -1.83900000       1.74140000
