18
Properties=species:S:1:pos:R:3 gdb_79775=T pbc="F F F"
C       -0.23030000       1.54450000      -0.00180000
N        0.14050000       0.13710000       0.03470000
C        1.06110000      -0.49780000      -0.91240000
C        2.57000000       0.01340000      -0.74050000
O        2.62640000       1.03920000       0.27590000
C        2.37530000       0.01400000       1.26310000
C        2.82680000      -1.11620000       0.29610000
C        1.35650000      -1.60370000       0.15340000
C        0.86160000      -0.49710000       1.14170000
H        0.60720000       2.24460000       0.07750000
H       -0.76500000       1.73620000      -0.93950000
H       -0.93230000       1.73750000       0.81780000
H        0.69570000      -0.66200000      -1.92920000
H        3.16760000       0.24580000      -1.62350000
H        2.79180000       0.24700000       2.24450000
H        3.73100000      -1.71330000       0.38410000
H        0.98220000      -2.62270000       0.11740000
H        0.30720000      -0.66060000       2.06920000
