25
Properties=species:S:1:pos:R:3 gdb_118410=T pbc="F F F"
C       -0.05760000       1.61880000      -0.12710000
C        0.00080000       0.09170000      -0.02240000
C       -1.39130000      -0.54180000       0.08520000
C       -1.40180000      -2.09150000       0.08790000
C       -0.75360000      -2.69280000       1.35820000
C       -0.64340000      -4.21860000       1.32810000
C       -2.76940000      -2.58550000      -0.08870000
C       -3.90530000      -2.96710000      -0.21600000
C       -5.27510000      -3.43420000      -0.38210000
H        0.94440000       2.05230000      -0.20500000
H       -0.62740000       1.93380000      -1.00830000
H       -0.54250000       2.05730000       0.75220000
H        0.51550000      -0.31590000      -0.90310000
H        0.61350000      -0.18480000       0.84350000
H       -1.89710000      -0.18360000       0.99150000
H       -2.00270000      -0.19960000      -0.75800000
H       -0.80630000      -2.42590000      -0.77620000
H        0.24540000      -2.26030000       1.47940000
H       -1.34150000      -2.37820000       2.22940000
H       -1.62890000      -4.68120000       1.22280000
H       -0.02610000      -4.55320000       0.48650000
H       -0.18520000      -4.59710000       2.24710000
H       -5.31650000      -4.34210000      -0.99440000
H       -5.73820000      -3.66680000       0.58340000
H       -5.89840000      -2.67770000      -0.87210000
