17
Properties=species:S:1:pos:R:3 gdb_31005=T pbc="F F F"
C        0.18480000       1.49100000       0.00150000
C        0.12720000       0.00330000      -0.07510000
C        0.03060000      -0.87610000      -1.12240000
C       -0.03420000      -0.58380000      -2.59260000
O        0.83280000       0.47200000      -3.00320000
N       -0.01340000      -2.19160000      -0.66310000
C        0.05020000      -2.09010000       0.63390000
O        0.04760000      -3.09430000       1.52850000
N        0.13760000      -0.80670000       1.06300000
H        1.03900000       1.83940000       0.59620000
H        0.29090000       1.89300000      -1.00710000
H       -0.72050000       1.91880000       0.45140000
H        0.17420000      -1.51730000      -3.13410000
H       -1.03630000      -0.25540000      -2.89300000
H        1.71640000       0.24260000      -2.69550000
H       -0.01720000      -3.90960000       1.01560000
H        0.22180000      -0.50810000       2.02000000
