14
Properties=species:S:1:pos:R:3 gdb_47788=T pbc="F F F"
O        0.01600000       0.02680000       0.37200000
C       -0.02340000       1.16860000       0.02150000
O       -1.19170000       1.76650000      -0.28330000
C       -1.23230000       3.00960000      -1.01360000
O       -0.17620000       3.85850000      -0.73930000
C        1.05930000       3.23060000      -1.02140000
C        1.24480000       2.05520000      -0.04210000
C        1.54700000       2.53970000       1.30590000
N        1.79710000       2.94010000       2.36010000
H       -1.26920000       2.74750000      -2.08230000
H       -2.15290000       3.50450000      -0.70490000
H        1.07710000       2.85280000      -2.05500000
H        1.84350000       3.97890000      -0.90210000
H        2.06020000       1.40090000      -0.36480000
