17
Properties=species:S:1:pos:R:3 gdb_44235=T pbc="F F F"
O        0.03340000       0.04100000      -0.05150000
C        0.02510000       1.23690000       0.02100000
N       -1.00480000       2.16700000       0.07350000
C       -0.14420000       3.35140000       0.04020000
C        1.07750000       2.38190000       0.03540000
N        1.41420000       2.77880000      -1.36490000
C        0.34990000       3.80320000      -1.33860000
C       -0.44400000       4.25050000      -2.52270000
C        0.49510000       5.21440000      -1.81740000
H       -1.96480000       2.05900000      -0.22460000
H       -0.35760000       4.10640000       0.79760000
H        1.88180000       2.36850000       0.76880000
H        2.34160000       3.18520000      -1.42860000
H       -0.13860000       3.86910000      -3.49110000
H       -1.51390000       4.39580000      -2.41120000
H        0.06710000       6.01060000      -1.21560000
H        1.41460000       5.48670000      -2.32680000
