21
Properties=species:S:1:pos:R:3 gdb_109020=T pbc="F F F"
C        0.10440000       1.50180000       0.21700000
C       -0.04180000       0.01280000      -0.14300000
C       -1.45820000      -0.47920000      -0.11130000
C       -2.14430000      -1.02260000      -1.12530000
C       -3.48500000      -1.48540000      -0.66970000
O       -3.41810000      -2.50430000       0.36320000
C       -3.60600000      -1.13920000       0.75900000
C       -4.88900000      -0.82530000       1.47840000
C       -2.29790000      -0.45250000       1.15960000
H        1.15300000       1.81010000       0.16840000
H       -0.46630000       2.12940000      -0.47480000
H       -0.25520000       1.70760000       1.23000000
H        0.37900000      -0.16770000      -1.13840000
H        0.56090000      -0.57980000       0.55990000
H       -1.76920000      -1.16380000      -2.13230000
H       -4.33380000      -1.57420000      -1.34200000
H       -5.72460000      -1.36130000       1.02150000
H       -4.82830000      -1.12670000       2.53040000
H       -5.10170000       0.24870000       1.44990000
H       -1.80540000      -0.98290000       1.98430000
H       -2.47990000       0.57290000       1.50710000
