22
Properties=species:S:1:pos:R:3 gdb_119485=T pbc="F F F"
C       -0.07140000       1.59120000       0.04630000
C       -0.12920000       0.06250000       0.09630000
C        0.82510000      -0.54130000       1.13900000
C        0.79020000      -2.04290000       1.17320000
C       -0.19350000      -2.86320000       1.96810000
C        1.28570000      -3.03840000       2.19620000
N        2.08000000      -3.83160000       1.17320000
C        1.18880000      -4.34980000       0.11640000
C        1.52420000      -2.91080000       0.12060000
H        0.93590000       1.94220000      -0.20420000
H       -0.75960000       1.99290000      -0.70380000
H       -0.34100000       2.02950000       1.01390000
H       -1.15260000      -0.26480000       0.31790000
H        0.11190000      -0.34740000      -0.89320000
H        1.85040000      -0.20400000       0.92990000
H        0.57280000      -0.15170000       2.13390000
H       -0.66900000      -2.30450000       2.76990000
H       -0.84200000      -3.61830000       1.53810000
H        1.75220000      -2.89130000       3.16260000
H        1.72970000      -4.97230000      -0.59140000
H        0.19580000      -4.71510000       0.35040000
H        2.18530000      -2.46540000      -0.61790000
