21
Properties=species:S:1:pos:R:3 gdb_92047=T pbc="F F F"
C        0.20270000       1.60630000      -0.09210000
C        0.04060000       0.08280000       0.03650000
C        0.48200000      -0.58800000      -1.28430000
C        0.65340000      -2.09570000      -1.19510000
O        1.99100000      -2.56030000      -0.97850000
C        1.03240000      -2.67650000       0.09720000
C        1.18130000      -1.77220000       1.26060000
C        0.73830000      -0.50920000       1.26020000
C        0.84250000       0.34330000       2.49690000
H        1.25850000       1.88390000      -0.18660000
H       -0.31420000       1.96310000      -0.98890000
H       -0.21350000       2.14290000       0.76420000
H       -1.03540000      -0.11310000       0.17400000
H       -0.23930000      -0.33620000      -2.06940000
H        1.44620000      -0.16670000      -1.59150000
H        0.08600000      -2.70200000      -1.90060000
H        0.76160000      -3.70860000       0.31960000
H        1.64590000      -2.18250000       2.15410000
H        1.27850000      -0.21980000       3.32580000
H        1.45870000       1.23400000       2.32960000
H       -0.14490000       0.70360000       2.81390000
