23
Properties=species:S:1:pos:R:3 gdb_118986=T pbc="F F F"
C       -0.16280000       1.33910000      -0.25160000
O       -0.03200000      -0.05060000      -0.08410000
C       -1.27370000      -0.71800000      -0.00490000
C       -1.03110000      -2.22650000       0.17670000
C       -0.29570000      -2.47370000       1.50420000
C       -2.38660000      -2.99550000       0.09410000
C       -2.46180000      -3.61870000      -1.32500000
C       -1.03770000      -3.52290000      -1.81680000
C       -0.27500000      -2.78140000      -1.01800000
H        0.84410000       1.76180000      -0.29720000
H       -0.69630000       1.59100000      -1.18220000
H       -0.70510000       1.80330000       0.58790000
H       -1.86240000      -0.32730000       0.84490000
H       -1.86050000      -0.54000000      -0.92220000
H       -0.91370000      -2.16300000       2.35490000
H       -0.06310000      -3.53620000       1.62550000
H        0.63800000      -1.90690000       1.54280000
H       -2.39180000      -3.78850000       0.84780000
H       -3.24130000      -2.34740000       0.31350000
H       -2.83580000      -4.64910000      -1.30620000
H       -3.14200000      -3.06400000      -1.98620000
H       -0.70720000      -3.98930000      -2.73910000
H        0.76900000      -2.54230000      -1.18380000
