23
Properties=species:S:1:pos:R:3 gdb_81337=T pbc="F F F"
C       -0.20070000       1.50360000       0.02180000
C        0.00350000      -0.00650000       0.02090000
C        1.11680000      -0.59070000      -0.90910000
C        2.12850000      -0.24930000       0.22060000
C        0.92230000      -0.61760000       1.13320000
C        0.75310000      -2.12920000       0.86910000
C        1.74420000      -3.02520000       1.61060000
O       -0.57650000      -2.48260000       1.25710000
C        0.93570000      -2.10710000      -0.69690000
H        0.72920000       2.07110000       0.11920000
H       -0.68390000       1.82410000      -0.90820000
H       -0.85530000       1.80100000       0.84850000
H       -0.96840000      -0.49830000      -0.06600000
H        1.25350000      -0.23980000      -1.93370000
H        3.04080000      -0.84820000       0.28980000
H        2.39180000       0.80670000       0.26990000
H        0.85800000      -0.30340000       2.17630000
H        1.57180000      -2.96360000       2.68960000
H        1.61660000      -4.07190000       1.30580000
H        2.78320000      -2.75390000       1.40700000
H       -0.69540000      -3.42090000       1.07750000
H        0.04350000      -2.50290000      -1.19130000
H        1.80410000      -2.68440000      -1.03130000
