19
Properties=species:S:1:pos:R:3 gdb_35804=T pbc="F F F"
C       -0.50070000      -1.14270000      -0.68570000
C       -0.28770000      -0.01380000      -0.33010000
C       -0.01630000       1.34540000       0.11370000
C       -0.44050000       1.64300000       1.57960000
C        0.33540000       2.92510000       1.92540000
C        1.68930000       2.73040000       1.24790000
O        2.51770000       1.76330000       1.93630000
C        2.46290000       0.84680000       0.82010000
C        1.47870000       1.75280000       0.05830000
H       -0.69650000      -2.13670000      -1.00380000
H       -0.56370000       2.03840000      -0.53980000
H       -1.52350000       1.74280000       1.67980000
H       -0.12110000       0.82200000       2.22770000
H       -0.15930000       3.80610000       1.49690000
H        0.44250000       3.09010000       3.00100000
H        2.23470000       3.66240000       1.06330000
H        3.44360000       0.73290000       0.34170000
H        2.08810000      -0.14190000       1.10820000
H        1.79140000       2.06300000      -0.93840000
