14
Properties=species:S:1:pos:R:3 gdb_27745=T pbc="F F F"
N        0.11050000       1.36350000      -0.13260000
C        0.00620000      -0.00230000      -0.06670000
C       -1.14140000      -0.79700000      -0.01380000
N       -0.64100000      -2.11350000      -0.02940000
C        0.68990000      -2.01890000      -0.08740000
O        1.45640000      -3.10970000      -0.11340000
N        1.13570000      -0.77360000      -0.11040000
C       -2.54000000      -0.54020000       0.04550000
O       -3.39780000      -1.41270000       0.08900000
H        1.02090000       1.71800000       0.11940000
H       -0.65610000       1.89850000       0.24290000
H       -1.21840000      -2.93750000      -0.00130000
H        2.37170000      -2.80450000      -0.16170000
H       -2.81560000       0.53810000       0.04960000
