15
Properties=species:S:1:pos:R:3 gdb_2219=T pbc="F F F"
C       -0.11910000       1.47800000       0.01300000
C        0.09620000       0.00270000       0.07450000
O       -1.06030000      -0.84550000      -0.09940000
C       -0.58370000      -1.74180000       0.94960000
C        0.71900000      -0.97190000       1.07880000
C        1.29420000      -0.79550000      -0.32040000
O        1.22890000      -1.77960000      -1.30230000
H        0.82010000       2.00700000       0.19890000
H       -0.48210000       1.77170000      -0.97850000
H       -0.85570000       1.80200000       0.75510000
H       -1.23530000      -1.67480000       1.82650000
H       -0.52030000      -2.78050000       0.60670000
H        1.27890000      -0.80010000       1.98890000
H        2.23590000      -0.25380000      -0.34630000
H        0.29770000      -1.83430000      -1.55840000
