14
Properties=species:S:1:pos:R:3 gdb_4206=T pbc="F F F"
O       -0.16740000       1.32850000       0.01540000
N       -0.00390000      -0.07180000       0.08930000
C       -1.12830000      -0.65190000       0.12440000
C       -1.50480000      -2.07550000       0.05430000
C       -2.85960000      -2.18540000       0.70040000
C       -3.28270000      -0.82220000       1.22640000
C       -2.58510000      -0.29400000      -0.04810000
N       -2.77640000      -1.71490000      -0.71200000
H        0.74440000       1.63220000      -0.04550000
H       -0.89900000      -2.93390000      -0.20360000
H       -3.27730000      -3.15730000       0.93990000
H       -4.36750000      -0.70680000       1.16140000
H       -2.92190000      -0.47200000       2.19740000
H       -2.89540000       0.60630000      -0.56920000
