20
Properties=species:S:1:pos:R:3 gdb_63683=T pbc="F F F"
C        0.25350000       1.39640000      -0.28350000
C        0.06080000      -0.03390000       0.18310000
C       -0.98500000      -0.80230000      -0.60320000
N        1.29620000      -0.74420000       0.56820000
C        0.28470000      -0.44730000       1.60030000
C        0.72880000       0.47150000       2.70880000
O        1.46310000      -0.26570000       3.69920000
C        2.79780000      -0.36630000       3.52510000
O        3.48820000      -1.02110000       4.24720000
H        1.08440000       1.88360000       0.22870000
H        0.47560000       1.41250000      -1.35630000
H       -0.65480000       1.98750000      -0.12260000
H       -0.69930000      -0.87000000      -1.65930000
H       -1.10960000      -1.81900000      -0.21750000
H       -1.95900000      -0.30300000      -0.55700000
H        1.25140000      -1.72330000       0.29680000
H       -0.32350000      -1.27800000       1.95550000
H        1.34340000       1.28860000       2.31970000
H       -0.12710000       0.89890000       3.23790000
H        3.16520000       0.22220000       2.66470000
