12
Properties=species:S:1:pos:R:3 gdb_4230=T pbc="F F F"
C       -0.02020000       1.37840000      -0.00860000
O        0.00500000      -0.03250000       0.00030000
C        0.66620000      -0.55640000       1.11380000
C        0.63130000      -2.07330000       1.01760000
F        1.24360000      -2.51600000      -0.08420000
F        1.26310000      -2.59860000       2.08100000
F       -0.61960000      -2.54260000       1.00960000
H        0.99550000       1.80190000      -0.03170000
H       -0.55390000       1.68380000      -0.91060000
H       -0.54430000       1.78010000       0.87200000
H        1.72190000      -0.24580000       1.15810000
H        0.18400000      -0.26780000       2.06100000
