19
Properties=species:S:1:pos:R:3 gdb_46352=T pbc="F F F"
N       -0.13550000       1.16030000      -0.32690000
C       -0.02530000      -0.04020000       0.01470000
O        1.03610000      -0.73620000       0.54830000
C        0.23980000      -1.96030000       0.64790000
C       -0.96940000      -1.23360000       0.01460000
N       -2.12650000      -1.08140000       0.85200000
C       -3.12410000      -2.17410000       0.88950000
C       -4.23950000      -1.10500000       0.96950000
C       -3.17380000      -0.11260000       0.44470000
H        0.72740000       1.67950000      -0.15370000
H        0.69230000      -2.76740000       0.06770000
H        0.09810000      -2.25050000       1.69080000
H       -1.20830000      -1.58510000      -1.00590000
H       -3.16720000      -2.74650000      -0.05270000
H       -3.01020000      -2.87540000       1.72250000
H       -5.12340000      -1.26150000       0.35120000
H       -4.54460000      -0.89270000       1.99550000
H       -3.08970000       0.87060000       0.91300000
H       -3.23200000       0.02170000      -0.64610000
