21
Properties=species:S:1:pos:R:3 gdb_105198=T pbc="F F F"
C       -0.34270000       1.24080000      -0.42860000
C       -0.35590000      -0.18280000       0.14320000
C        0.66780000      -0.41330000       1.24290000
C        1.25980000      -1.78150000       1.42900000
N        2.09470000      -0.67690000       0.98500000
C        2.61500000      -0.71140000      -0.37500000
C        0.40370000       0.40110000       2.50390000
N        1.50380000       0.61920000       3.26970000
O       -0.71770000       0.78090000       2.79410000
H        0.62240000       1.48890000      -0.88200000
H       -1.11060000       1.35090000      -1.20030000
H       -0.55070000       1.97010000       0.35820000
H       -1.33720000      -0.38220000       0.58340000
H       -0.21280000      -0.91580000      -0.65670000
H        1.46110000      -2.16640000       2.42530000
H        0.97780000      -2.53470000       0.69360000
H        1.93150000      -1.15920000      -1.11010000
H        2.85650000       0.30500000      -0.69980000
H        3.54020000      -1.29630000      -0.37500000
H        2.40760000       0.40710000       2.87600000
H        1.41300000       1.20230000       4.08420000
