18
Properties=species:S:1:pos:R:3 gdb_109486=T pbc="F F F"
C       -0.04390000       1.56410000      -0.02660000
C        0.00850000       0.03600000       0.01200000
N        0.71060000      -0.46740000       1.18820000
C        2.08170000      -0.70680000       1.20770000
O        2.82030000      -0.53050000       0.26990000
C        2.44600000      -1.22180000       2.59780000
C        1.12270000      -1.24750000       3.37660000
C        0.06940000      -0.74680000       2.39180000
O       -1.11360000      -0.60810000       2.58490000
H        0.96470000       1.98530000      -0.05400000
H       -0.57750000       1.89590000      -0.92220000
H       -0.56910000       1.95550000       0.84880000
H       -0.99970000      -0.38370000       0.04250000
H        0.53620000      -0.35380000      -0.86160000
H        2.91240000      -2.20500000       2.49590000
H        3.19720000      -0.55750000       3.03250000
H        0.83620000      -2.24520000       3.71880000
H        1.11910000      -0.59720000       4.25510000
