23
Properties=species:S:1:pos:R:3 gdb_120545=T pbc="F F F"
C       -0.56220000       1.32980000      -0.41310000
C       -0.18010000      -0.13580000      -0.18740000
C        0.89500000      -0.60880000      -1.14950000
C        1.18410000      -2.12150000      -1.25730000
C        0.85910000      -1.93900000      -2.75470000
C       -0.24900000      -2.77640000      -3.36500000
C       -0.65090000      -2.28890000      -4.75150000
O       -1.68570000      -3.13770000      -5.22770000
O        0.46350000      -0.56050000      -2.53450000
H        0.29220000       1.99390000      -0.24110000
H       -0.90080000       1.47880000      -1.44240000
H       -1.36700000       1.63860000       0.26050000
H        0.18560000      -0.28420000       0.83770000
H       -1.06310000      -0.77580000      -0.30690000
H        1.80520000      -0.00360000      -1.01890000
H        2.19670000      -2.44560000      -1.01320000
H        0.46460000      -2.74700000      -0.72220000
H        1.75400000      -1.97440000      -3.39460000
H        0.08380000      -3.82020000      -3.43190000
H       -1.12920000      -2.75490000      -2.71240000
H       -0.98380000      -1.24320000      -4.68270000
H        0.22440000      -2.31320000      -5.42210000
H       -1.99290000      -2.79010000      -6.06990000
