19
Properties=species:S:1:pos:R:3 gdb_41439=T pbc="F F F"
C       -0.00920000       1.51070000      -0.15650000
C        1.55870000       1.49620000       0.07930000
C        1.38620000       0.15080000       0.86230000
C        1.04630000       0.21980000       2.34520000
O        0.00970000      -0.77690000       2.44920000
C       -0.11770000      -1.21330000       1.12370000
C        1.32100000      -1.36940000       0.45390000
C        0.70890000      -0.98220000      -0.89620000
C        0.03670000      -0.01640000       0.11330000
H       -0.53450000       2.07530000       0.61760000
H       -0.37190000       1.83330000      -1.13590000
H        2.11930000       1.41130000      -0.85230000
H        1.98020000       2.32250000       0.65620000
H        1.88150000      -0.04980000       3.00310000
H        0.65550000       1.19590000       2.66020000
H       -0.87860000      -1.99140000       1.04230000
H        2.02960000      -2.17440000       0.67150000
H        1.38570000      -0.53720000      -1.62770000
H        0.05680000      -1.71690000      -1.37760000
