19
Properties=species:S:1:pos:R:3 gdb_61863=T pbc="F F F"
C       -0.11090000       1.69300000       0.12040000
C       -0.00750000       0.17540000       0.03690000
C       -1.37070000      -0.51810000       0.06240000
C       -1.22530000      -2.03240000       0.21280000
N       -2.20980000      -2.77170000      -0.36990000
O       -0.31720000      -2.53660000       0.84900000
O        0.64520000      -0.15000000      -1.19960000
C        1.67220000      -1.02600000      -1.17200000
N        2.25210000      -1.33870000      -2.24950000
H        0.88460000       2.14250000       0.08260000
H       -0.69430000       2.08820000      -0.71680000
H       -0.59380000       1.99550000       1.05460000
H        0.58550000      -0.21410000       0.87180000
H       -1.94600000      -0.15690000       0.92370000
H       -1.93390000      -0.25480000      -0.83920000
H       -2.85840000      -2.36760000      -1.02260000
H       -2.11940000      -3.77500000      -0.34690000
H        1.90290000      -1.39950000      -0.16820000
H        3.00080000      -1.99960000      -2.05190000
