21
Properties=species:S:1:pos:R:3 gdb_59314=T pbc="F F F"
C       -0.03300000       1.65310000       0.01430000
C        0.04170000       0.14780000       0.27570000
O        0.28920000      -0.12280000       1.65540000
C       -1.25970000      -0.56230000      -0.06520000
C       -1.67260000      -0.62000000      -1.56790000
C       -1.92560000      -2.12640000      -1.38860000
O       -2.43220000      -2.96710000      -2.07410000
C       -1.31340000      -2.13270000       0.02370000
C        0.00280000      -2.90870000       0.12910000
H        0.91270000       2.14020000       0.27930000
H       -0.22780000       1.86560000      -1.04160000
H       -0.82930000       2.10470000       0.61460000
H        0.85260000      -0.27660000      -0.34000000
H        1.08900000       0.34680000       1.91330000
H       -2.05350000      -0.12440000       0.54740000
H       -2.52750000      -0.02240000      -1.89350000
H       -0.84170000      -0.43450000      -2.25960000
H       -2.01140000      -2.50060000       0.78280000
H        0.70110000      -2.64000000      -0.67080000
H        0.48770000      -2.70330000       1.08600000
H       -0.19130000      -3.98170000       0.04700000
