17
Properties=species:S:1:pos:R:3 gdb_56124=T pbc="F F F"
C       -0.11420000       1.42320000       0.02290000
C       -0.06360000      -0.08720000       0.01810000
O       -0.17650000      -0.75080000       1.02520000
C        0.14310000      -0.75610000      -1.33460000
N        0.23670000      -2.17760000      -1.16440000
C        0.19290000      -3.03320000      -2.22170000
N        0.17540000      -2.63490000      -3.43830000
C        0.18490000      -4.49500000      -1.82700000
O        0.15400000      -5.38350000      -2.63620000
H        0.85450000       1.82910000      -0.29030000
H       -0.85820000       1.78750000      -0.69350000
H       -0.35250000       1.78300000       1.02400000
H       -0.68640000      -0.48810000      -2.00690000
H        1.04300000      -0.34470000      -1.81500000
H        0.10010000      -2.50150000      -0.21710000
H        0.15980000      -3.45880000      -4.04230000
H        0.20900000      -4.70360000      -0.73350000
