21
Properties=species:S:1:pos:R:3 gdb_72886=T pbc="F F F"
C       -0.46270000       1.54890000      -0.05880000
C        0.01730000       0.11700000      -0.01310000
C       -1.00800000      -0.99830000       0.29020000
O       -0.19200000      -1.54790000       1.34930000
C        0.81960000      -0.53700000       1.15810000
C        1.91310000      -0.93950000       0.17210000
C        3.39370000      -0.85820000       0.41690000
C        2.72550000      -2.19700000       0.21610000
C        1.13380000      -0.33060000      -1.00870000
H        0.37820000       2.25070000      -0.05470000
H       -1.04430000       1.73860000      -0.96950000
H       -1.10200000       1.78350000       0.79920000
H       -1.97110000      -0.63900000       0.67720000
H       -1.19510000      -1.72150000      -0.51440000
H        1.10390000      -0.05150000       2.09750000
H        4.01950000      -0.47110000      -0.38150000
H        3.73170000      -0.59650000       1.41510000
H        2.59860000      -2.84910000       1.07390000
H        2.90050000      -2.71880000      -0.71950000
H        0.81080000      -1.02850000      -1.78800000
H        1.64440000       0.51120000      -1.48740000
