20
Properties=species:S:1:pos:R:3 gdb_90183=T pbc="F F F"
C       -0.09040000       1.54530000      -0.03050000
C        0.01530000       0.02750000       0.03390000
C        0.88010000      -0.61680000      -1.14860000
C        1.84660000      -1.33150000      -0.23750000
C        3.05980000      -2.24160000       0.08370000
C        2.51860000      -1.80750000       1.48960000
C        2.14930000      -0.39670000       0.96810000
N        0.67800000      -0.42250000       1.31390000
C        1.05190000      -1.84800000       0.99700000
H        0.90060000       2.01260000      -0.04150000
H       -0.61610000       1.86100000      -0.93730000
H       -0.63440000       1.92820000       0.83750000
H       -0.99090000      -0.40640000       0.02800000
H        0.28360000      -1.27700000      -1.78430000
H        1.34280000       0.14950000      -1.77790000
H        2.96640000      -3.30170000      -0.17030000
H        4.04940000      -1.86780000      -0.19580000
H        2.90160000      -2.07600000       2.47370000
H        2.75600000       0.51030000       0.97180000
H        0.33650000      -2.67260000       1.02780000
