23
Properties=species:S:1:pos:R:3 gdb_64326=T pbc="F F F"
C        0.02500000       1.53660000       0.01200000
C       -0.04650000       0.00150000      -0.01180000
C       -1.52520000      -0.43030000       0.03410000
C        0.64580000      -0.52360000      -1.29160000
C        0.76490000      -2.05270000      -1.34610000
C        1.47900000      -2.61080000      -0.09900000
C        0.85310000      -2.07860000       1.18230000
O        0.50550000      -2.79900000       2.08970000
C        0.69850000      -0.56440000       1.22810000
H        1.06230000       1.88610000      -0.03270000
H       -0.51040000       1.96630000      -0.84200000
H       -0.42600000       1.93930000       0.92530000
H       -2.06080000      -0.08090000      -0.85520000
H       -1.64280000      -1.51650000       0.09200000
H       -2.02250000      -0.00630000       0.91280000
H        0.10330000      -0.16000000      -2.17260000
H        1.65250000      -0.08600000      -1.34790000
H       -0.23030000      -2.50520000      -1.42490000
H        1.30980000      -2.35350000      -2.24710000
H        1.46820000      -3.70280000      -0.06990000
H        2.52890000      -2.28440000      -0.11400000
H        1.70780000      -0.12940000       1.25970000
H        0.18940000      -0.29370000       2.15750000
