16
Properties=species:S:1:pos:R:3 gdb_30933=T pbc="F F F"
C        0.00870000       1.39910000      -0.38620000
C       -0.10610000      -0.05710000      -0.14270000
C       -1.12380000      -0.90340000       0.02530000
C       -2.61250000      -0.76390000       0.01900000
O       -3.05150000       0.37250000      -0.70330000
O       -0.62050000      -2.17950000       0.24680000
C        0.73890000      -2.09050000       0.21130000
N        1.49630000      -3.07820000       0.38190000
O        1.07910000      -0.78510000      -0.03730000
H        0.55780000       1.60220000      -1.31270000
H       -0.98960000       1.83190000      -0.45850000
H        0.55200000       1.88930000       0.42960000
H       -3.04370000      -1.69990000      -0.36680000
H       -2.99670000      -0.63650000       1.03780000
H       -2.80310000       0.24550000      -1.62540000
H        2.47050000      -2.79560000       0.31590000
