16
Properties=species:S:1:pos:R:3 gdb_33878=T pbc="F F F"
C        0.03560000      -1.13980000      -0.02580000
C        0.04040000       0.06280000       0.01940000
C       -0.00310000       1.48550000       0.05710000
N        0.31480000       2.30220000      -1.15480000
C        1.18280000       2.39180000       0.03340000
C        0.71380000       3.41800000       1.09230000
C       -0.74940000       3.73270000       0.70810000
C       -0.84370000       2.24950000       1.12460000
O        0.18880000       2.51920000       2.13340000
H        0.04380000      -2.20120000      -0.05460000
H        0.75660000       1.68530000      -1.83610000
H        2.20170000       2.02620000       0.00750000
H        1.42700000       4.15400000       1.45990000
H       -1.21350000       4.36890000       1.46040000
H       -0.99440000       4.02930000      -0.30880000
H       -1.73660000       1.76450000       1.51410000
