23
Properties=species:S:1:pos:R:3 gdb_92704=T pbc="F F F"
C       -0.91300000       0.97930000      -0.02880000
C        0.16580000      -0.09940000      -0.05710000
C        1.29060000       0.10890000      -1.09800000
C        2.44190000      -0.65950000      -0.49850000
C        2.24710000      -0.94580000       0.78920000
C        3.15100000      -1.70260000       1.70990000
C        0.91570000      -0.37070000       1.27750000
C        1.14200000       0.87790000       2.14180000
O        0.13690000      -1.32560000       2.00900000
H       -0.49510000       1.97430000       0.15880000
H       -1.43940000       1.02150000      -0.98820000
H       -1.65550000       0.76890000       0.74770000
H       -0.31270000      -1.05880000      -0.28630000
H        1.00670000      -0.24690000      -2.09540000
H        1.53630000       1.17580000      -1.21330000
H        3.32970000      -0.92700000      -1.06350000
H        4.04200000      -2.06450000       1.19010000
H        3.48530000      -1.08640000       2.55510000
H        2.62820000      -2.56780000       2.13520000
H        1.65610000       1.66410000       1.58080000
H        0.18900000       1.27390000       2.50460000
H        1.76410000       0.63830000       3.01260000
H        0.43540000      -1.32010000       2.92420000
