20
Properties=species:S:1:pos:R:3 gdb_116656=T pbc="F F F"
C        0.41000000       1.02530000       0.78930000
O       -0.12940000       0.45850000      -0.39830000
C        0.60270000      -0.52920000      -0.95510000
N        0.21280000      -1.07330000      -2.01930000
C        0.97610000      -2.15400000      -2.63020000
C        2.27840000      -2.59670000      -1.94920000
C        0.03520000      -3.34000000      -2.77540000
C       -0.76900000      -3.55180000      -3.97900000
O        0.41130000      -4.32770000      -3.73460000
H        0.52790000       0.27230000       1.57840000
H        1.37790000       1.50670000       0.60280000
H       -0.30420000       1.77960000       1.12160000
H        1.51670000      -0.77240000      -0.39800000
H        1.22060000      -1.82720000      -3.65000000
H        2.72420000      -3.40560000      -2.53370000
H        3.00450000      -1.77990000      -1.88960000
H        2.09920000      -2.97450000      -0.93600000
H       -0.33270000      -3.74430000      -1.82980000
H       -1.70790000      -4.09950000      -3.91720000
H       -0.69840000      -2.83940000      -4.79940000
