25
Properties=species:S:1:pos:R:3 gdb_122129=T pbc="F F F"
C        0.03040000       1.84550000       0.90190000
C       -0.04890000       0.37530000       0.48000000
C        0.61870000      -0.60000000       1.45690000
C        0.45500000      -2.05820000       1.01700000
C        1.06230000      -3.06390000       1.99690000
O        2.01980000      -0.30910000       1.54460000
C        2.47920000       0.24130000       2.76840000
C        3.86440000       0.80820000       2.49140000
O        3.82440000       1.76130000       1.44570000
H        1.06770000       2.17350000       1.01400000
H       -0.44650000       2.49070000       0.15770000
H       -0.47930000       2.01310000       1.85780000
H       -1.09860000       0.07890000       0.36140000
H        0.42330000       0.24510000      -0.50230000
H        0.16910000      -0.47760000       2.45460000
H       -0.61450000      -2.26150000       0.88260000
H        0.92200000      -2.17230000       0.03060000
H        0.94110000      -4.08970000       1.63620000
H        2.13160000      -2.87590000       2.12700000
H        0.58450000      -2.99990000       2.98130000
H        1.81300000       1.04670000       3.10720000
H        2.52420000      -0.52580000       3.55790000
H        4.24340000       1.31700000       3.38370000
H        4.55450000      -0.01670000       2.25340000
H        3.36630000       1.31850000       0.72090000
