18
Properties=species:S:1:pos:R:3 gdb_80172=T pbc="F F F"
C        0.03790000       1.62160000       0.04340000
C        0.06780000       0.09040000       0.02650000
C        0.82210000      -0.57670000      -1.11490000
C        2.33710000      -0.50350000      -1.12730000
O        2.97960000       0.45320000      -0.34380000
C        1.64120000      -1.66750000      -0.47060000
O        1.51750000      -1.57120000       0.93450000
C        0.70160000      -0.51250000       1.27380000
N        0.50490000      -0.12460000       2.45610000
H        1.05210000       2.02310000       0.03480000
H       -0.50010000       2.00400000      -0.82940000
H       -0.46860000       1.96800000       0.94730000
H       -0.96640000      -0.27870000      -0.00410000
H        0.31070000      -0.73350000      -2.05690000
H        2.81120000      -0.70320000      -2.08810000
H        3.56110000      -0.00170000       0.27540000
H        1.73120000      -2.69050000      -0.81430000
H        1.03690000      -0.68900000       3.11990000
