17
Properties=species:S:1:pos:R:3 gdb_104973=T pbc="F F F"
C       -1.29060000       0.17210000      -0.08130000
O        0.12730000       0.04380000      -0.04200000
C        0.69060000      -0.68740000      -1.07530000
C        1.70930000      -1.74050000      -0.64610000
C        0.39330000      -2.18120000      -1.19010000
C        1.05420000       0.01310000      -2.34260000
O        1.57880000      -0.55630000      -3.27990000
C        0.81830000       1.52000000      -2.55070000
O       -0.08180000       2.17040000      -2.09300000
H       -1.61510000       0.73780000      -0.95920000
H       -1.78140000      -0.80970000      -0.06860000
H       -1.57080000       0.72150000       0.81970000
H        2.58720000      -1.84870000      -1.27170000
H        1.86580000      -1.79600000       0.42440000
H       -0.34230000      -2.56820000      -0.49490000
H        0.36330000      -2.58920000      -2.19340000
H        1.54550000       1.92840000      -3.28450000
