17
Properties=species:S:1:pos:R:3 gdb_44394=T pbc="F F F"
O       -0.06030000      -0.01210000      -0.05790000
C       -0.02920000       1.18660000      -0.01740000
N       -1.02020000       2.14940000      -0.05420000
C       -0.13650000       3.30440000       0.11160000
C        0.12880000       3.88060000       1.51830000
C        1.67770000       4.03560000       1.41420000
N        1.71710000       2.50800000       1.41090000
C        0.51250000       2.62340000       2.33040000
C        1.06540000       2.29010000       0.09270000
H       -2.02300000       2.05280000       0.01580000
H       -0.22310000       4.05740000      -0.67410000
H       -0.53030000       4.66450000       1.89520000
H        2.10510000       4.50920000       0.52520000
H        2.15150000       4.42590000       2.31720000
H        0.85330000       2.85240000       3.34140000
H       -0.15230000       1.75850000       2.35080000
H        1.78810000       2.33440000      -0.72120000
