15
Properties=species:S:1:pos:R:3 gdb_129659=T pbc="F F F"
N       -0.07090000       1.42330000       0.00950000
C       -0.08840000       0.01920000      -0.01490000
C       -1.18400000      -0.82530000      -0.00620000
N       -2.51750000      -0.42370000      -0.04640000
C       -0.63290000      -2.14050000      -0.02890000
C       -1.36900000      -3.40440000      -0.04180000
O       -0.88450000      -4.51260000      -0.03720000
N        0.71400000      -2.10060000      -0.04200000
N        1.00980000      -0.81040000      -0.04830000
H        0.50910000       1.81160000       0.74440000
H        0.18890000       1.84670000      -0.87500000
H       -2.61290000       0.55760000       0.18720000
H       -3.13870000      -0.98530000       0.51930000
H       -2.47580000      -3.26870000      -0.06430000
H        1.97790000      -0.52940000      -0.06200000
