19
Properties=species:S:1:pos:R:3 gdb_78465=T pbc="F F F"
O       -0.17390000       1.46550000       0.02880000
C        0.00730000       0.07660000      -0.00850000
C       -0.38240000      -0.70740000       1.22630000
C       -1.27020000      -0.70540000      -0.01030000
C       -1.30810000      -2.20990000      -0.43560000
C       -1.35020000      -2.86400000       0.97640000
C       -0.00050000      -2.21420000       1.39920000
C        0.86100000      -2.65540000       0.22170000
C        0.08450000      -2.65230000      -0.86710000
H        0.56830000       1.84420000       0.51140000
H        0.84360000      -0.26260000      -0.61460000
H       -0.65800000      -0.14240000       2.10960000
H       -2.19480000      -0.14090000      -0.03670000
H       -2.12040000      -2.44840000      -1.12200000
H       -2.19770000      -2.52650000       1.58170000
H       -1.31430000      -3.95710000       0.94750000
H        0.38330000      -2.45750000       2.39010000
H        1.92760000      -2.83660000       0.26880000
H        0.38630000      -2.83020000      -1.89180000
