18
Properties=species:S:1:pos:R:3 gdb_31527=T pbc="F F F"
C        0.03430000       1.55160000       0.10100000
C        0.07230000       0.02210000      -0.02610000
C        0.78580000      -0.43910000      -1.25880000
N        0.56690000       0.00470000      -2.48980000
C        1.41740000      -0.69690000      -3.29000000
O        1.46740000      -0.49720000      -4.62970000
C        2.17770000      -1.58790000      -2.57340000
N        3.18160000      -2.52870000      -2.87500000
N        1.74560000      -1.39490000      -1.26130000
H        1.04350000       1.96310000       0.19850000
H       -0.42100000       1.99150000      -0.78930000
H       -0.54680000       1.85400000       0.97730000
H        0.55520000      -0.42110000       0.85310000
H       -0.95600000      -0.36300000      -0.03800000
H        0.81400000       0.18650000      -4.82000000
H        3.99150000      -2.09220000      -3.30390000
H        2.85090000      -3.23940000      -3.51970000
H        2.10750000      -1.90130000      -0.47010000
