23
Properties=species:S:1:pos:R:3 gdb_96234=T pbc="F F F"
C        0.02800000       1.57750000      -0.06870000
C        0.03270000       0.04150000      -0.04050000
C        0.80070000      -0.51800000      -1.24860000
C        0.54860000      -1.99840000      -1.55580000
C        1.20520000      -2.99880000      -0.59620000
C        0.76920000      -2.96070000       0.84940000
C        0.48000000      -1.91640000       1.63030000
C        0.56560000      -0.43690000       1.32730000
O        1.90740000       0.03160000       1.55430000
H        1.04510000       1.96540000       0.03840000
H       -0.38760000       1.95200000      -1.00960000
H       -0.57220000       1.98850000       0.75030000
H       -1.00790000      -0.30780000      -0.10660000
H        0.51500000       0.06700000      -2.13100000
H        1.87570000      -0.33780000      -1.10880000
H       -0.53350000      -2.18240000      -1.57980000
H        0.91900000      -2.21700000      -2.56470000
H        1.02620000      -4.01100000      -0.97680000
H        2.29870000      -2.87060000      -0.64100000
H        0.72200000      -3.94000000       1.32420000
H        0.23030000      -2.13740000       2.66620000
H       -0.03280000       0.08300000       2.08600000
H        2.50310000      -0.67810000       1.29650000
