15
Properties=species:S:1:pos:R:3 gdb_30415=T pbc="F F F"
C       -0.12720000       1.42590000       0.01270000
N       -0.06480000      -0.02380000       0.03990000
C        0.58050000      -0.63030000      -0.87640000
N        1.25690000      -0.00490000      -1.94190000
C        1.96720000      -0.60770000      -2.95570000
O        2.52200000      -0.01650000      -3.83710000
O        2.01170000      -1.98050000      -2.90860000
C        1.38010000      -2.66040000      -1.90570000
C        0.69220000      -2.07810000      -0.92330000
H        0.86770000       1.89360000       0.08660000
H       -0.60950000       1.81160000      -0.89990000
H       -0.71510000       1.77610000       0.86380000
H        1.24490000       1.00160000      -2.00790000
H        1.51650000      -3.72760000      -2.02150000
H        0.20810000      -2.65580000      -0.15000000
