15
Properties=species:S:1:pos:R:3 gdb_67323=T pbc="F F F"
O        0.15450000       1.31860000      -0.09960000
C        0.08420000      -0.04250000      -0.05710000
C        0.40630000      -1.02320000       1.12950000
N       -0.99260000      -0.90000000       1.65290000
C       -1.16270000      -0.97440000       0.16480000
C        0.04260000      -1.94080000      -0.08140000
C        0.72100000      -0.97950000      -1.10200000
C        0.18930000      -0.95400000      -2.45610000
N       -0.24480000      -0.94830000      -3.52770000
H       -0.34740000       1.66390000       0.65020000
H        1.29390000      -1.05650000       1.76160000
H       -1.29190000      -1.77260000       2.09530000
H       -2.12740000      -0.95300000      -0.34040000
H        0.02020000      -3.02760000      -0.10420000
H        1.81430000      -0.99550000      -1.11630000
