18
Properties=species:S:1:pos:R:3 gdb_98994=T pbc="F F F"
C       -0.06800000       1.38340000       0.23450000
N        0.15110000      -0.02880000      -0.02500000
C        0.63180000      -0.42280000      -1.25930000
O        0.77740000       0.32450000      -2.19590000
N        0.87220000      -1.80840000      -1.28510000
C        1.45220000      -2.53660000      -2.31630000
N        2.20660000      -2.04200000      -3.20010000
O        1.06790000      -3.83970000      -2.12900000
C        1.62940000      -4.80490000      -3.00310000
H        0.84640000       1.90520000       0.54620000
H       -0.42200000       1.84650000      -0.68670000
H       -0.82620000       1.50020000       1.01340000
H        0.39680000      -0.60090000       0.76770000
H        0.37920000      -2.37670000      -0.61490000
H        2.51340000      -2.73350000      -3.87720000
H        2.72450000      -4.80260000      -2.95070000
H        1.25140000      -5.77140000      -2.66750000
H        1.31630000      -4.63590000      -4.04030000
