16
Properties=species:S:1:pos:R:3 gdb_70047=T pbc="F F F"
O       -0.04520000       1.37990000       0.02870000
C       -0.00270000      -0.01080000       0.04460000
C       -0.37450000      -0.77950000      -1.18960000
C       -1.30470000      -0.79070000       0.02800000
C       -1.10870000      -1.91820000       0.96690000
C        0.12160000      -1.90080000       1.51170000
C        0.92390000      -0.68940000       1.05830000
C        0.64200000      -2.86690000       2.41170000
N        1.09660000      -3.63770000       3.14830000
H        0.66800000       1.69880000      -0.53530000
H       -0.71660000      -0.18530000      -2.03020000
H        0.15460000      -1.69230000      -1.44410000
H       -2.26480000      -0.29760000      -0.06120000
H       -1.86130000      -2.66990000       1.17100000
H        1.89220000      -0.97290000       0.63140000
H        1.12250000      -0.01040000       1.89610000
