17
Properties=species:S:1:pos:R:3 gdb_125331=T pbc="F F F"
C       -0.02030000       1.46240000       0.01940000
C        0.00060000      -0.02920000      -0.01760000
C       -0.03470000      -0.82550000      -1.09650000
N        0.00390000      -2.16880000      -0.68560000
N       -0.00750000      -3.33490000      -1.34750000
C        0.04940000      -4.23660000      -0.36090000
C        0.09700000      -3.64290000       0.92660000
C        0.06520000      -2.28810000       0.66910000
C        0.06910000      -0.89890000       1.24060000
H        0.87670000       1.86560000       0.50650000
H       -0.07240000       1.88340000      -0.98820000
H       -0.88130000       1.83900000       0.58630000
H       -0.08450000      -0.58710000      -2.14780000
H        0.05470000      -5.28890000      -0.60510000
H        0.14650000      -4.14100000       1.88090000
H        0.97130000      -0.68480000       1.82770000
H       -0.78440000      -0.71150000       1.90470000
