18
Properties=species:S:1:pos:R:3 gdb_23235=T pbc="F F F"
C       -0.51690000       1.42530000       0.19500000
C       -0.06110000      -0.01250000      -0.02740000
C        0.73630000      -0.41360000      -1.31710000
C        1.82370000       0.56380000      -1.79410000
O        2.80800000       0.00600000      -0.88920000
C        1.87940000      -1.00380000      -0.43030000
C        1.10240000      -0.55460000       0.79630000
N        1.26590000      -0.56760000       2.05150000
O        2.46670000      -1.19720000       2.40960000
H        0.31940000       2.12750000       0.13650000
H       -1.26720000       1.71870000      -0.54670000
H       -0.96230000       1.52860000       1.18870000
H       -0.92380000      -0.68340000       0.07300000
H        0.19620000      -0.97730000      -2.07540000
H        2.12630000       0.41970000      -2.83870000
H        1.65380000       1.63220000      -1.61960000
H        2.29220000      -2.01370000      -0.46920000
H        2.45380000      -1.13120000       3.37060000
