18
Properties=species:S:1:pos:R:3 gdb_40424=T pbc="F F F"
C        0.32060000       1.46890000       0.02990000
O        1.00670000       0.31850000      -0.47410000
C       -0.32090000       0.14890000       0.03420000
C       -0.44730000      -0.67260000       1.27620000
C       -1.15190000      -1.99010000       1.27230000
N       -1.79840000      -0.82370000       1.88120000
C       -1.61510000      -0.71520000       3.34770000
C       -0.12740000      -0.54480000       3.56880000
C        0.51700000      -0.49660000       2.40360000
H        0.71280000       1.87560000       0.96050000
H        0.03150000       2.20500000      -0.71850000
H       -1.07510000      -0.05810000      -0.72520000
H       -1.63930000      -2.34710000       0.36780000
H       -0.74990000      -2.76750000       1.91850000
H       -2.18620000       0.14610000       3.71920000
H       -2.02370000      -1.60360000       3.84620000
H        0.32560000      -0.49510000       4.55220000
H        1.58020000      -0.37170000       2.24640000
