14
Properties=species:S:1:pos:R:3 gdb_33917=T pbc="F F F"
N       -0.00900000      -1.14160000      -0.13770000
C        0.03640000       0.01100000      -0.05100000
C        0.06260000       1.42630000       0.13310000
O        0.26790000       2.27290000      -0.99870000
C        1.17720000       2.41400000       0.08470000
C        0.51340000       3.29730000       1.16840000
C       -0.58720000       4.26730000       0.67770000
O       -1.59990000       3.22580000       0.78040000
C       -0.64640000       2.28000000       1.24770000
H        2.22920000       2.25700000      -0.12230000
H        1.12480000       3.56100000       2.02780000
H       -0.80390000       5.08870000       1.36810000
H       -0.48700000       4.64190000      -0.34380000
H       -0.94120000       1.72590000       2.14090000
