22
Properties=species:S:1:pos:R:3 gdb_70440=T pbc="F F F"
C        0.44000000       1.46590000      -0.44110000
C        0.23050000      -0.00800000      -0.22080000
C       -0.98550000      -0.54610000       0.49860000
C        0.36950000      -0.83130000       1.07050000
C        0.99670000      -2.00130000       0.30590000
C        0.97650000      -1.12870000      -0.98880000
N        0.49780000      -1.75350000      -2.21370000
C       -0.83430000      -1.45180000      -2.72750000
C        0.38130000      -0.92800000      -3.40910000
H        1.50200000       1.70100000      -0.57910000
H       -0.09660000       1.82780000      -1.32690000
H        0.08010000       2.04840000       0.41440000
H       -1.56970000       0.21060000       1.01390000
H       -1.58100000      -1.35910000       0.09040000
H        0.66880000      -0.48260000       2.05160000
H        2.00670000      -2.27300000       0.61890000
H        0.38560000      -2.90810000       0.26390000
H        1.99590000      -0.78470000      -1.19610000
H       -1.38090000      -2.29470000      -3.14260000
H       -1.44370000      -0.72760000      -2.19460000
H        0.57420000       0.14020000      -3.32160000
H        0.73970000      -1.37810000      -4.33140000
