17
Properties=species:S:1:pos:R:3 gdb_129574=T pbc="F F F"
N        0.06090000       1.52040000      -0.02400000
C        0.02470000       0.06110000       0.02380000
C        0.61460000      -0.61740000      -1.22710000
O       -0.11760000      -0.12680000      -2.34170000
C        0.72300000      -0.45570000       1.24560000
N        1.63680000       0.24410000       1.90140000
N        2.01150000      -0.61530000       2.87940000
C        1.32480000      -1.76930000       2.77360000
N        0.50060000      -1.70920000       1.74780000
H        1.00840000       1.84010000       0.15730000
H       -0.17880000       1.80410000      -0.96970000
H       -1.02410000      -0.25650000       0.08360000
H        1.68360000      -0.36100000      -1.30390000
H        0.52650000      -1.70950000      -1.13350000
H        0.28410000      -0.46930000      -3.14480000
H        2.69610000      -0.33300000       3.56110000
H        1.45320000      -2.60040000       3.45070000
