6
Properties=species:S:1:pos:R:3 gdb_486=T pbc="F F F"
C        0.60540000       0.00000000       0.00000000
C       -0.60540000       0.00000000       0.00000000
C       -1.96760000       0.00000000       0.00000000
C        1.96760000       0.00000000       0.00000000
N       -3.12950000       0.00000000       0.00000000
N        3.12950000       0.00000000       0.00000000
