14
Properties=species:S:1:pos:R:3 gdb_29501=T pbc="F F F"
N        0.00610000       1.36940000       0.13490000
C        0.02190000       0.00230000       0.03610000
N       -1.03930000      -0.74340000       0.01600000
C       -0.63300000      -2.16490000      -0.01070000
C        0.86490000      -2.12260000      -0.02110000
C        1.22190000      -0.82210000       0.00980000
O        2.57880000      -0.72650000       0.00900000
C        2.96230000      -2.04320000      -0.02330000
N        1.99770000      -2.91460000      -0.04110000
H        0.79320000       1.86230000      -0.25650000
H       -0.89110000       1.79000000      -0.05920000
H       -1.04260000      -2.68440000       0.86420000
H       -1.06000000      -2.65180000      -0.89570000
H        4.02590000      -2.22440000      -0.03160000
