25
Properties=species:S:1:pos:R:3 gdb_109768=T pbc="F F F"
C        0.23370000       1.00600000       0.89710000
C        0.03560000      -0.51480000       0.86170000
C       -1.35030000      -0.90290000       0.38040000
C       -1.70810000      -1.09250000      -1.08160000
C       -0.71240000      -0.95550000      -2.21550000
C       -1.70550000      -2.28250000      -0.14500000
C       -0.70510000      -3.41430000      -0.27740000
C       -0.65380000      -4.27750000       0.98580000
O       -0.97790000      -4.21330000      -1.43220000
H        1.22690000       1.26860000       1.27480000
H        0.12600000       1.44120000      -0.10170000
H       -0.50750000       1.48440000       1.54700000
H        0.81080000      -0.96290000       0.23220000
H        0.19430000      -0.92350000       1.86880000
H       -2.13290000      -0.44060000       0.98000000
H       -2.70040000      -0.73880000      -1.35260000
H        0.30810000      -1.20610000      -1.91730000
H       -0.97740000      -1.62280000      -3.04140000
H       -0.69850000       0.07120000      -2.59730000
H       -2.69000000      -2.64570000       0.15300000
H        0.29540000      -3.01520000      -0.46670000
H       -1.64360000      -4.69500000       1.20940000
H        0.04390000      -5.10840000       0.85060000
H       -0.33770000      -3.68850000       1.85290000
H       -1.88560000      -4.52800000      -1.35710000
