14
Properties=species:S:1:pos:R:3 gdb_19424=T pbc="F F F"
C        0.01620000       1.50710000      -0.02660000
O        1.19200000       0.69890000      -0.00340000
C       -0.08360000       0.04080000       0.00750000
C       -0.47500000      -0.76910000       1.19750000
C       -0.97020000      -1.95530000       0.82620000
C       -1.00750000      -2.06030000      -0.66640000
O       -1.85400000      -1.06370000      -1.29280000
C       -0.45340000      -0.80230000      -1.19160000
H       -0.17810000       2.07870000       0.88000000
H       -0.18010000       2.03240000      -0.96010000
H       -0.37950000      -0.39600000       2.20980000
H       -1.33570000      -2.72890000       1.48940000
H       -0.95580000      -3.01140000      -1.18580000
H        0.10230000      -0.70410000      -2.11980000
