20
Properties=species:S:1:pos:R:3 gdb_86108=T pbc="F F F"
C        0.06600000       1.55300000      -0.02610000
C       -0.05130000       0.05530000      -0.02550000
C        0.06510000      -0.68120000      -1.13450000
C       -0.02660000      -2.16160000      -1.10790000
N        0.86640000      -2.88740000      -0.15240000
C       -0.58430000      -2.82140000       0.09890000
C       -1.00000000      -1.95990000       1.27030000
O       -0.86250000      -2.66310000       2.50060000
C       -0.24670000      -0.61450000       1.31770000
H        0.88810000       1.88510000       0.62150000
H        0.24590000       1.94630000      -1.03030000
H       -0.84550000       2.02020000       0.36890000
H        0.23920000      -0.20550000      -2.09580000
H       -0.20000000      -2.64750000      -2.06420000
H        1.10530000      -3.79620000      -0.54250000
H       -1.16950000      -3.72950000      -0.02860000
H       -2.07490000      -1.76420000       1.17660000
H        0.05980000      -2.94200000       2.55020000
H        0.74170000      -0.80040000       1.75920000
H       -0.76840000       0.05310000       2.01200000
