14
Properties=species:S:1:pos:R:3 gdb_1846=T pbc="F F F"
C        0.02030000       1.51660000       0.00490000
C       -0.05590000       0.02820000      -0.00930000
C       -1.10740000      -0.78710000      -0.16410000
C       -0.64000000      -2.21640000      -0.09910000
C        0.87780000      -2.09030000       0.12200000
O        1.70370000      -2.96490000       0.24030000
N        1.12140000      -0.72830000       0.16030000
H        0.67640000       1.88990000      -0.79090000
H       -0.97160000       1.94960000      -0.13850000
H        0.42220000       1.88610000       0.95630000
H       -2.12820000      -0.46830000      -0.31190000
H       -1.07900000      -2.79370000       0.72330000
H       -0.82610000      -2.79000000      -1.01490000
H        2.04440000      -0.34960000       0.29530000
