20
Properties=species:S:1:pos:R:3 gdb_97847=T pbc="F F F"
C        0.06980000       1.63790000       0.44310000
N        0.07530000       0.22010000       0.16480000
C       -1.19470000      -0.52870000       0.19520000
C       -0.43270000      -1.73290000       0.79390000
C        0.66310000      -0.69260000       1.17450000
C        2.07100000      -1.01680000       1.02210000
C        3.24370000      -1.27380000       0.90890000
C        4.64830000      -1.63540000       0.72860000
O        4.98630000      -1.96170000      -0.61260000
H        1.09980000       2.00630000       0.48620000
H       -0.44530000       2.17160000      -0.36240000
H       -0.42960000       1.89210000       1.39820000
H       -1.92660000      -0.11150000       0.90810000
H       -1.68030000      -0.65110000      -0.77790000
H       -0.89940000      -2.27530000       1.61560000
H       -0.08090000      -2.43170000       0.03440000
H        0.48690000      -0.32980000       2.20400000
H        5.29410000      -0.79290000       1.00120000
H        4.89860000      -2.45950000       1.41670000
H        4.32530000      -2.58500000      -0.93110000
