18
Properties=species:S:1:pos:R:3 gdb_126577=T pbc="F F F"
C        0.00660000       1.57340000       0.00310000
C        0.11190000       0.04760000      -0.03520000
C        0.64940000      -0.53880000       1.28570000
C        0.77720000      -2.02790000       1.26380000
N       -0.07100000      -2.82760000       1.84900000
O        0.36080000      -4.09760000       1.61280000
N        1.50890000      -4.10050000       0.84710000
C        1.78000000      -2.83970000       0.63280000
N        2.91540000      -2.40540000      -0.02500000
H        0.98370000       2.03610000       0.18070000
H       -0.38300000       1.96660000      -0.94050000
H       -0.66480000       1.90100000       0.80410000
H       -0.86980000      -0.39340000      -0.24120000
H        0.75930000      -0.25590000      -0.86910000
H        1.63070000      -0.10030000       1.50870000
H       -0.01920000      -0.26190000       2.10620000
H        3.39530000      -3.14470000      -0.52050000
H        2.77830000      -1.59190000      -0.60730000
