17
Properties=species:S:1:pos:R:3 gdb_69364=T pbc="F F F"
O       -0.22280000       1.42760000       0.02680000
C       -0.08480000       0.05320000       0.02370000
C       -0.32610000      -0.79980000      -1.18470000
C       -1.21390000      -0.96960000       0.03060000
C       -0.47520000      -1.80920000       1.09150000
O       -0.12610000      -3.11140000       0.74350000
C        0.68730000      -0.73090000       1.08700000
C       -1.20090000      -1.79920000       2.41490000
O       -1.41450000      -2.81380000       3.03450000
H        0.47440000       1.80540000      -0.52030000
H       -0.81540000      -0.28250000      -2.00380000
H        0.36090000      -1.58830000      -1.47810000
H       -2.28620000      -0.82750000      -0.02930000
H       -0.44930000      -3.67410000       1.46570000
H        1.66230000      -1.13830000       0.80700000
H        0.77190000      -0.18700000       2.03180000
H       -1.52350000      -0.80580000       2.78630000
