16
Properties=species:S:1:pos:R:3 gdb_17923=T pbc="F F F"
O       -0.06000000       1.40160000      -0.03950000
C       -0.00370000      -0.00100000       0.02730000
C        0.30940000      -0.61790000       1.41110000
C       -0.86730000      -0.07680000       2.22980000
O       -1.96220000      -0.12590000       1.29030000
C       -1.40710000      -0.62330000       0.06890000
C       -1.04340000      -2.09520000       0.28870000
O        0.10380000      -2.01290000       1.17260000
H        0.84050000       1.73960000      -0.01240000
H        0.62720000      -0.43880000      -0.75620000
H        1.30280000      -0.46920000       1.83530000
H       -1.08130000      -0.71620000       3.09230000
H       -0.71290000       0.95680000       2.56050000
H       -2.08800000      -0.40400000      -0.75230000
H       -1.85930000      -2.63410000       0.78120000
H       -0.76260000      -2.62300000      -0.63160000
