18
Properties=species:S:1:pos:R:3 gdb_61671=T pbc="F F F"
O       -0.15310000       1.40480000       0.11330000
C        0.03490000       0.01020000      -0.05300000
C        0.82370000      -0.34420000      -1.32760000
C        0.06840000       0.09770000      -2.57120000
C        0.54680000      -0.44720000      -3.93520000
C       -0.85620000      -1.08310000      -4.01140000
O       -1.19750000      -0.59620000      -2.69450000
C        0.67380000      -0.58410000       1.13800000
N        1.20770000      -1.02510000       2.06330000
H        0.70500000       1.80650000       0.29310000
H       -0.97130000      -0.41100000      -0.14990000
H        1.81100000       0.13510000      -1.29470000
H        0.98370000      -1.42770000      -1.35860000
H       -0.08900000       1.18280000      -2.54400000
H        0.77390000       0.30320000      -4.69320000
H        1.37300000      -1.15860000      -3.87450000
H       -1.51730000      -0.66600000      -4.78040000
H       -0.89440000      -2.17690000      -4.06630000
