13
Properties=species:S:1:pos:R:3 gdb_2817=T pbc="F F F"
O        0.00630000      -0.03400000      -0.37790000
C        0.04570000       1.09850000       0.03390000
C        1.27820000       1.92340000       0.07120000
C        1.16410000       3.41220000      -0.18590000
C        1.48060000       2.94370000       1.20700000
C        0.52260000       3.08430000       2.26650000
C       -0.25980000       3.21850000       3.16970000
H       -0.86460000       1.61220000       0.41360000
H        2.16810000       1.41240000      -0.27830000
H        1.95220000       3.88080000      -0.76300000
H        0.17040000       3.81160000      -0.35650000
H        2.51610000       3.04030000       1.52000000
H       -0.95350000       3.33080000       3.96580000
