21
Properties=species:S:1:pos:R:3 gdb_82609=T pbc="F F F"
C       -0.17930000       1.55290000      -0.06310000
C        0.01530000       0.05680000       0.04330000
C        1.25930000      -0.72610000      -0.30680000
C        2.65790000      -0.09400000      -0.17990000
C        3.06370000      -0.15220000       1.30430000
C        2.50090000       0.84960000       2.27980000
O        1.95280000       2.07750000       1.90560000
C        1.78630000      -0.46060000       2.09360000
C        0.68830000      -0.80690000       1.10200000
H        0.73700000       2.11460000       0.09010000
H       -0.57860000       1.78990000      -1.05650000
H       -0.90420000       1.90710000       0.67800000
H       -0.87620000      -0.46430000      -0.30720000
H        1.16400000      -1.55320000      -1.00410000
H        3.37560000      -0.66490000      -0.77480000
H        2.68250000       0.93240000      -0.56560000
H        4.01660000      -0.61350000       1.54590000
H        3.04240000       0.90240000       3.22700000
H        2.68310000       2.66150000       1.67280000
H        1.81720000      -1.11770000       2.95690000
H        0.11300000      -1.67660000       1.40370000
