16
Properties=species:S:1:pos:R:3 gdb_124192=T pbc="F F F"
C        0.11220000       1.41980000      -0.54360000
C        0.02070000       0.02660000      -0.13040000
C       -0.05270000      -1.12190000       0.22140000
C       -0.14670000      -2.51910000       0.63660000
C       -1.45030000      -3.16880000       0.24930000
N       -2.10160000      -3.89320000       1.12750000
O       -3.22760000      -4.37270000       0.46340000
C       -3.21320000      -3.91260000      -0.79600000
C       -2.11930000      -3.14160000      -1.00920000
H        0.82740000       1.54800000      -1.36340000
H       -0.85770000       1.79600000      -0.88710000
H        0.43920000       2.05790000       0.28460000
H        0.67900000      -3.09050000       0.19020000
H       -0.03160000      -2.61210000       1.72200000
H       -4.04400000      -4.21410000      -1.41520000
H       -1.82700000      -2.62130000      -1.90530000
