17
Properties=species:S:1:pos:R:3 gdb_9888=T pbc="F F F"
C       -0.13910000       1.62380000      -0.14820000
C       -0.22350000       0.12240000      -0.00590000
C       -1.61180000      -0.48380000      -0.05740000
O       -2.48410000       0.09130000       0.91290000
C       -2.36160000      -0.36970000       2.18000000
N       -3.04570000       0.15570000       3.10010000
C        0.91670000      -0.73720000      -0.35510000
O        0.61550000      -0.45260000       1.01290000
H       -0.49260000       1.93840000      -1.13600000
H       -0.76460000       2.11240000       0.60360000
H        0.89220000       1.95990000      -0.02050000
H       -2.08190000      -0.28270000      -1.02460000
H       -1.54560000      -1.57020000       0.07930000
H       -1.64620000      -1.19480000       2.27740000
H       -2.85410000      -0.31470000       3.98230000
H        0.75310000      -1.76870000      -0.66630000
H        1.82790000      -0.28030000      -0.73840000
