18
Properties=species:S:1:pos:R:3 gdb_23182=T pbc="F F F"
O       -0.11940000       1.33760000       0.03280000
N        0.02700000      -0.05980000       0.10210000
C       -1.10010000      -0.64400000       0.03780000
C       -2.48550000      -0.05640000      -0.08590000
C       -3.32150000      -1.31080000      -0.39450000
O       -2.61920000      -2.39530000       0.21380000
C       -1.24520000      -2.12620000       0.06960000
C       -0.39680000      -3.02910000      -0.80450000
C       -0.27290000      -3.06410000       0.70380000
H        0.79300000       1.64090000       0.08940000
H       -2.77720000       0.40330000       0.86520000
H       -2.53610000       0.71790000      -0.85460000
H       -4.32790000      -1.29000000       0.02840000
H       -3.39930000      -1.46500000      -1.48150000
H       -0.90930000      -3.85610000      -1.28310000
H        0.39930000      -2.56620000      -1.37680000
H        0.60640000      -2.62420000       1.16090000
H       -0.69650000      -3.91680000       1.22250000
