20
Properties=species:S:1:pos:R:3 gdb_96620=T pbc="F F F"
C        0.58390000       1.59010000       0.12820000
N        0.49710000       0.14470000       0.22730000
C        0.56900000      -0.52110000      -0.86360000
N        0.69320000      -0.01510000      -2.13090000
C        0.56250000      -2.05500000      -0.91400000
O        1.01780000      -2.56930000      -1.93520000
N        0.09810000      -2.80050000       0.12220000
C        0.19880000      -4.25030000       0.01560000
C       -0.60330000      -2.33450000       1.31040000
H        1.54710000       1.92290000      -0.29350000
H       -0.21230000       2.01320000      -0.50420000
H        0.49460000       2.03100000       1.12390000
H        1.02990000       0.92650000      -2.24010000
H        1.00050000      -0.70040000      -2.80830000
H        0.65530000      -4.65460000       0.92640000
H       -0.79650000      -4.69950000      -0.09530000
H        0.80560000      -4.50460000      -0.85010000
H       -0.68160000      -1.25280000       1.30210000
H       -1.59880000      -2.79610000       1.35000000
H       -0.05480000      -2.64010000       2.21040000
