14
Properties=species:S:1:pos:R:3 gdb_49214=T pbc="F F F"
O       -0.12100000      -0.05260000      -0.10010000
C       -0.06440000       1.15770000      -0.02160000
C        1.17430000       1.91650000      -0.00150000
C        1.18310000       3.25900000       0.08060000
N        2.37060000       3.94550000       0.06620000
C        3.57690000       3.37670000      -0.36620000
O        4.55250000       4.04540000      -0.56740000
O        3.54740000       2.05500000      -0.59200000
C        2.49970000       1.21580000      -0.04810000
H       -0.98680000       1.77790000       0.04580000
H        0.27880000       3.85460000       0.15170000
H        2.39070000       4.95190000       0.11380000
H        2.81580000       0.88360000       0.94960000
H        2.45620000       0.33690000      -0.69310000
