20
Properties=species:S:1:pos:R:3 gdb_26336=T pbc="F F F"
C        0.02410000       1.38920000       0.27540000
N       -0.00840000       0.05650000      -0.30430000
C        1.20800000      -0.69960000      -0.09080000
C       -1.19660000      -0.66930000      -0.11920000
C       -1.30920000      -2.01650000       0.16270000
N       -2.66180000      -2.32000000       0.21360000
C       -3.39890000      -1.19550000      -0.02450000
N       -4.80550000      -1.28990000      -0.08450000
C       -2.52860000      -0.14720000      -0.22540000
H        0.92160000       1.91120000      -0.07140000
H       -0.84300000       1.96660000      -0.05170000
H        0.03340000       1.38410000       1.38030000
H        1.33240000      -1.04240000       0.95340000
H        1.21170000      -1.58190000      -0.73850000
H        2.07170000      -0.08130000      -0.35150000
H       -0.56520000      -2.77100000       0.34690000
H       -3.05390000      -3.24450000       0.23940000
H       -5.22650000      -1.35020000       0.83870000
H       -5.19490000      -0.47610000      -0.54430000
H       -2.81630000       0.87530000      -0.41250000
