16
Properties=species:S:1:pos:R:3 gdb_21258=T pbc="F F F"
C       -0.64370000       0.60960000       0.57360000
O        0.26100000       0.89540000      -0.48370000
C        0.54720000      -0.14580000      -1.28730000
C        0.12870000      -1.46300000      -1.33820000
C        0.83320000      -1.98530000      -2.44570000
N        1.61320000      -1.08400000      -3.02720000
N        1.43060000       0.04890000      -2.29560000
C        2.09000000       1.28200000      -2.66080000
H       -0.76780000       1.53760000       1.13280000
H       -1.61440000       0.28330000       0.18110000
H       -0.24260000      -0.16880000       1.23370000
H       -0.56290000      -1.96380000      -0.68300000
H        0.80140000      -2.99240000      -2.83590000
H        1.44060000       1.92080000      -3.26990000
H        2.37610000       1.82890000      -1.76000000
H        2.97870000       1.02330000      -3.23630000
