20
Properties=species:S:1:pos:R:3 gdb_119737=T pbc="F F F"
C        0.17250000       1.31200000      -0.06400000
O        0.04640000      -0.08960000      -0.03200000
C       -1.29810000      -0.52290000       0.03940000
C       -1.28040000      -2.02740000       0.11810000
C       -0.72070000      -2.79540000      -1.10350000
O       -1.89390000      -3.64530000      -1.16580000
C       -2.48560000      -2.99650000      -0.02970000
C       -2.05460000      -3.63070000       1.31200000
N       -0.98560000      -2.60110000       1.44700000
H        1.23880000       1.54420000      -0.12140000
H       -0.33420000       1.74800000      -0.94000000
H       -0.24560000       1.77980000       0.84100000
H       -1.79620000      -0.10620000       0.92840000
H       -1.85820000      -0.19430000      -0.85390000
H       -0.61030000      -2.20070000      -2.01830000
H        0.20330000      -3.36030000      -0.92810000
H       -3.53070000      -2.72260000      -0.19050000
H       -2.78450000      -3.58180000       2.12850000
H       -1.72350000      -4.66750000       1.18650000
H       -0.04120000      -2.94930000       1.57290000
