15
Properties=species:S:1:pos:R:3 gdb_16325=T pbc="F F F"
O        0.07410000       1.39660000       0.12760000
C        0.08710000      -0.01420000       0.01320000
C       -1.31590000      -0.55670000       0.01930000
C       -2.11280000      -1.08400000       1.21640000
C       -1.98270000      -1.91620000      -0.00870000
O       -2.95010000      -1.46130000      -1.00280000
C       -2.29520000      -0.23660000      -1.05910000
N       -2.43000000       0.74900000      -1.82420000
H       -0.47890000       1.72900000      -0.59250000
H        0.60020000      -0.33620000      -0.90660000
H        0.65930000      -0.39850000       0.86350000
H       -1.48800000      -1.37550000       2.05620000
H       -3.07740000      -0.66100000       1.47920000
H       -1.60130000      -2.92200000      -0.11610000
H       -3.17720000       0.61420000      -2.50620000
