12
Properties=species:S:1:pos:R:3 gdb_132831=T pbc="F F F"
F        0.00050000       0.03400000       0.00310000
C       -0.01520000       1.36120000       0.01060000
C       -1.21600000       2.05150000       0.03000000
N       -1.25020000       3.38420000       0.03770000
C       -0.06450000       3.99950000       0.02570000
N        1.13790000       3.43270000       0.00690000
C        1.17890000       2.08920000      -0.00100000
C        2.44090000       1.42780000      -0.02100000
C        3.49800000       0.85490000      -0.03790000
H       -2.15770000       1.50870000       0.03930000
H       -0.08330000       5.08590000       0.03190000
H        4.43670000       0.35690000      -0.05290000
