22
Properties=species:S:1:pos:R:3 gdb_87978=T pbc="F F F"
C       -0.08360000       1.42650000      -0.22900000
N        0.08040000       0.00090000      -0.00200000
C        1.43700000      -0.53200000      -0.05150000
C        0.69210000      -0.47690000       1.24040000
C        1.15460000       0.44700000       2.38890000
C        0.56980000      -0.19530000       3.66010000
C        0.52720000      -1.69750000       3.32890000
O       -0.35730000      -2.45890000       4.13170000
C        0.05250000      -1.71480000       1.87370000
H        0.76410000       2.04530000       0.10880000
H       -0.21340000       1.59700000      -1.30270000
H       -0.98790000       1.77890000       0.27890000
H        1.56430000      -1.47450000      -0.58050000
H        2.25630000       0.17630000      -0.18460000
H        2.24860000       0.46810000       2.43880000
H        0.82620000       1.48160000       2.26000000
H        1.14650000       0.03520000       4.56170000
H       -0.46090000       0.13920000       3.82730000
H        1.54910000      -2.10890000       3.38790000
H       -0.02340000      -2.45050000       5.03410000
H       -1.03870000      -1.61220000       1.86780000
H        0.29970000      -2.64140000       1.35030000
