23
Properties=species:S:1:pos:R:3 gdb_59388=T pbc="F F F"
C       -1.48980000       0.88140000      -0.77090000
C       -1.22860000      -0.51910000      -1.34780000
C       -1.99720000      -0.72840000      -2.66070000
C        0.26230000      -0.73260000      -1.54800000
C        1.17850000      -1.11530000      -0.42110000
C        0.93060000      -2.11050000      -1.55130000
C        0.14240000      -3.37870000      -1.24960000
C        1.99560000      -2.29660000      -2.50310000
C        2.87690000      -2.47000000      -3.30430000
H       -0.96520000       1.02500000       0.17880000
H       -1.14590000       1.65900000      -1.46300000
H       -2.55920000       1.04070000      -0.59730000
H       -1.59390000      -1.25060000      -0.61630000
H       -1.66200000      -0.01680000      -3.42440000
H       -1.84510000      -1.73640000      -3.05780000
H       -3.07220000      -0.57840000      -2.51620000
H        0.69500000      -0.04720000      -2.27380000
H        2.15550000      -0.65160000      -0.35260000
H        0.72680000      -1.36110000       0.53570000
H        0.81040000      -4.15170000      -0.85700000
H       -0.63700000      -3.20040000      -0.50520000
H       -0.33020000      -3.77490000      -2.15370000
H        3.65590000      -2.61790000      -4.01000000
