19
Properties=species:S:1:pos:R:3 gdb_110689=T pbc="F F F"
C       -0.24540000       1.48400000       0.13050000
C        0.22070000       0.04480000      -0.11890000
C        0.80820000      -0.59050000       1.12340000
C        0.01400000      -1.29110000       2.22220000
C       -1.34990000      -1.78120000       1.86590000
C       -1.31870000      -2.73480000       0.92320000
C        0.09340000      -3.03080000       0.54560000
O        0.48060000      -3.86990000      -0.23500000
C        0.96180000      -2.08810000       1.35790000
H        0.57490000       2.11070000       0.49770000
H       -0.62630000       1.93870000      -0.78880000
H       -1.04510000       1.51490000       0.87820000
H       -0.61240000      -0.55230000      -0.50020000
H        0.98730000       0.03510000      -0.90360000
H        1.65200000      -0.02730000       1.52060000
H        0.23680000      -1.04560000       3.25440000
H       -2.24790000      -1.36280000       2.30750000
H       -2.16180000      -3.22490000       0.45400000
H        1.91750000      -2.45920000       1.70650000
