18
Properties=species:S:1:pos:R:3 gdb_76103=T pbc="F F F"
O       -0.24370000       1.28500000      -0.32600000
C       -0.20650000      -0.07990000      -0.08810000
C       -0.38600000      -0.59010000       1.34860000
C       -0.49700000       0.37530000       2.40010000
N       -0.55780000       1.16340000       3.24580000
C       -1.49900000      -0.72580000       0.29450000
C       -2.76330000       0.06170000       0.39570000
C       -3.90410000      -0.24320000      -0.54560000
C       -4.01730000      -0.59770000       0.91510000
H        0.52410000       1.69750000       0.08560000
H        0.49310000      -0.64570000      -0.70320000
H        0.14750000      -1.49320000       1.62580000
H       -1.63010000      -1.74740000      -0.05270000
H       -2.62050000       1.10420000       0.65240000
H       -4.48390000       0.59000000      -0.92600000
H       -3.77550000      -1.05350000      -1.25590000
H       -3.96410000      -1.64680000       1.18720000
H       -4.67620000      -0.01000000       1.54390000
