18
Properties=species:S:1:pos:R:3 gdb_14402=T pbc="F F F"
C        0.05750000       1.50330000      -0.12740000
C       -0.04400000       0.01170000      -0.04000000
O        0.45030000      -0.72460000      -1.16890000
C       -0.25290000      -1.85310000      -0.56820000
C        0.65420000      -2.14880000       0.64170000
C        0.36100000      -0.78790000       1.30580000
C       -1.15540000      -0.91560000       1.60790000
C       -1.31020000      -0.87640000       0.07990000
H        1.10850000       1.81030000      -0.16500000
H       -0.44020000       1.87580000      -1.02770000
H       -0.40130000       1.97540000       0.74670000
H       -0.50850000      -2.63980000      -1.27640000
H        0.34210000      -2.99670000       1.25840000
H        1.68720000      -2.28650000       0.31690000
H        1.06660000      -0.39110000       2.03420000
H       -1.48740000      -1.79920000       2.16080000
H       -1.57980000      -0.01760000       2.06600000
H       -2.23840000      -0.68520000      -0.45680000
