16
Properties=species:S:1:pos:R:3 gdb_19367=T pbc="F F F"
C        0.04970000       1.32980000       0.24900000
O       -0.00350000      -0.02090000      -0.18980000
C       -1.26060000      -0.56640000      -0.10910000
C       -1.90730000      -1.04470000       1.16220000
C       -1.62440000      -2.02480000       0.03490000
C       -2.64960000      -1.85190000      -1.13120000
O       -3.60220000      -0.82730000      -0.79560000
C       -2.30950000      -0.44320000      -1.28040000
H        1.08450000       1.65940000       0.13560000
H       -0.60100000       1.97780000      -0.35450000
H       -0.24890000       1.41840000       1.30190000
H       -1.21070000      -1.13530000       1.99010000
H       -2.92370000      -0.77980000       1.42470000
H       -0.97250000      -2.87990000       0.14800000
H       -2.95320000      -2.59970000      -1.85310000
H       -2.24940000       0.20270000      -2.14860000
