17
Properties=species:S:1:pos:R:3 gdb_78648=T pbc="F F F"
C       -0.16200000       1.43710000       0.01590000
C        0.06130000      -0.06910000       0.06300000
C        0.87170000      -0.62170000      -1.11770000
C        2.16500000      -0.53660000      -0.36580000
C        1.27650000      -0.51860000       0.93750000
C        1.27270000      -2.06190000       0.80970000
O        1.27520000      -2.96740000       1.59380000
C        1.56200000      -1.92770000      -0.65920000
O        2.06170000      -2.84750000      -1.54240000
H        0.77310000       1.96880000      -0.18930000
H       -0.88030000       1.70230000      -0.76770000
H       -0.55800000       1.80100000       0.96970000
H       -0.88040000      -0.58710000       0.28690000
H        0.71440000      -0.47760000      -2.18110000
H        3.16250000      -0.19610000      -0.59490000
H        1.51840000      -0.04300000       1.88420000
H        1.32660000      -3.29650000      -1.97460000
