21
Properties=species:S:1:pos:R:3 gdb_112045=T pbc="F F F"
C       -0.04860000       1.63370000       0.00250000
C       -0.08370000       0.10270000      -0.02420000
C        0.68840000      -0.51380000      -1.21110000
C        2.17690000      -0.24000000      -1.16120000
C        2.89690000      -1.33920000      -0.93810000
C        2.03660000      -2.57280000      -0.82460000
C        0.65780000      -2.05330000      -1.24300000
C       -0.56420000      -2.85870000      -1.16700000
O        0.09480000      -2.65300000      -2.41900000
H        0.97040000       2.01270000       0.12880000
H       -0.44720000       2.05440000      -0.92760000
H       -0.65020000       2.02500000       0.82860000
H        0.32630000      -0.29240000       0.91390000
H       -1.12720000      -0.23090000      -0.07210000
H        0.24020000      -0.14180000      -2.14210000
H        2.58720000       0.75670000      -1.27540000
H        3.97620000      -1.37050000      -0.83920000
H        2.34740000      -3.38730000      -1.48840000
H        2.03640000      -2.97540000       0.19780000
H       -0.51680000      -3.87390000      -0.77220000
H       -1.53560000      -2.37590000      -1.06510000
