14
Properties=species:S:1:pos:R:3 gdb_45710=T pbc="F F F"
O       -0.15290000      -0.00410000       0.30440000
C       -0.06310000       1.16930000       0.10380000
C       -1.20490000       2.18530000      -0.20610000
N       -0.74000000       3.48620000       0.31450000
C        0.51130000       3.36390000       0.46650000
O        1.37630000       4.15490000       1.12470000
C        2.55650000       3.33930000       1.33000000
O        2.19900000       1.98990000       1.09900000
C        1.18640000       2.07830000       0.11430000
H       -1.39690000       2.21210000      -1.28740000
H       -2.13610000       1.88200000       0.28120000
H        3.33140000       3.67890000       0.62790000
H        2.88270000       3.45150000       2.36510000
H        1.60690000       2.07860000      -0.90680000
