16
Properties=species:S:1:pos:R:3 gdb_30885=T pbc="F F F"
C        0.08810000       1.16920000      -0.30600000
O       -0.21150000       0.13090000       0.63680000
C       -1.27690000      -0.62780000       0.32640000
C       -1.38980000      -1.93460000      -0.01340000
O       -0.39860000      -2.84650000      -0.20620000
C       -2.79360000      -2.22170000      -0.13950000
C       -3.42670000      -1.04770000       0.13910000
N       -4.76490000      -0.69160000       0.25560000
O       -2.54200000      -0.06460000       0.43360000
H        1.00870000       1.64520000       0.03700000
H        0.23310000       0.75280000      -1.31000000
H       -0.71730000       1.91060000      -0.33490000
H        0.43590000      -2.42350000       0.02660000
H       -3.24110000      -3.16690000      -0.39770000
H       -5.37310000      -1.29190000      -0.28450000
H       -4.92600000       0.28000000       0.02040000
