19
Properties=species:S:1:pos:R:3 gdb_69063=T pbc="F F F"
C       -0.03310000       1.56360000      -0.01270000
C        0.03730000       0.05620000      -0.01190000
C       -0.79030000      -0.75840000       0.95330000
C        0.72480000      -0.76810000       1.10420000
C        1.48410000      -1.91760000       0.42230000
C        1.13530000      -1.75960000      -1.03990000
C        0.38600000      -0.68020000      -1.26670000
C        1.30510000      -0.14450000       2.25290000
C        1.81090000       0.37160000       3.21610000
H        0.87490000       2.00170000      -0.44050000
H       -0.88700000       1.91440000      -0.60370000
H       -0.14380000       1.95060000       1.00380000
H       -1.33510000      -0.22200000       1.72320000
H       -1.27270000      -1.66050000       0.59040000
H        2.56370000      -1.82380000       0.59340000
H        1.18930000      -2.89600000       0.82190000
H        1.46110000      -2.46780000      -1.79320000
H        0.02720000      -0.35370000      -2.23700000
H        2.25220000       0.82490000       4.06840000
