23
Properties=species:S:1:pos:R:3 gdb_118685=T pbc="F F F"
C       -0.08540000       1.57690000      -0.13590000
C       -0.22350000       0.05900000      -0.28030000
C        0.93870000      -0.56520000      -1.06760000
C        0.84160000      -2.07820000      -1.20420000
C        1.13070000      -2.87490000       0.05570000
C       -0.19170000      -2.66740000      -2.15600000
O       -0.98860000      -1.83510000      -2.94490000
C        1.28110000      -2.73690000      -2.49740000
O        1.69600000      -1.88400000      -3.53980000
H        0.83430000       1.84440000       0.39700000
H       -0.05100000       2.06610000      -1.11600000
H       -0.92710000       2.00390000       0.41870000
H       -0.28800000      -0.39360000       0.71700000
H       -1.15920000      -0.18450000      -0.79510000
H        0.98490000      -0.10440000      -2.05820000
H        1.89230000      -0.31860000      -0.58000000
H        0.44660000      -2.60170000       0.86580000
H        1.01880000      -3.95110000      -0.11510000
H        2.15530000      -2.69990000       0.40500000
H       -0.72330000      -3.56630000      -1.85540000
H       -0.38700000      -1.40380000      -3.56800000
H        1.82600000      -3.67760000      -2.43940000
H        1.67490000      -2.39290000      -4.35790000
