21
Properties=species:S:1:pos:R:3 gdb_111332=T pbc="F F F"
C       -0.02010000       1.63080000      -0.02880000
C       -0.16880000       0.10540000      -0.04880000
C        0.65520000      -0.54270000      -1.15150000
N        2.16420000      -0.37530000      -1.08880000
C        2.65610000      -1.17860000       0.04960000
C        2.30110000      -1.88730000      -1.19450000
C        0.80480000      -2.06980000      -1.26160000
C       -0.06040000      -3.16740000      -0.77480000
N        0.14300000      -2.93690000      -2.22230000
H        1.02610000       1.91620000       0.11390000
H       -0.35670000       2.07270000      -0.97300000
H       -0.60950000       2.07510000       0.77860000
H        0.10740000      -0.31040000       0.92690000
H       -1.22190000      -0.16580000      -0.20390000
H        0.34830000      -0.13070000      -2.12120000
H        3.70740000      -1.00090000       0.25420000
H        2.04060000      -1.30890000       0.93610000
H        3.02020000      -2.35670000      -1.85700000
H        0.37850000      -4.08530000      -0.39250000
H       -1.01890000      -2.90460000      -0.33330000
H       -0.66740000      -2.47020000      -2.62450000
