18
Properties=species:S:1:pos:R:3 gdb_69666=T pbc="F F F"
C        0.01040000       1.56920000       0.25530000
C        0.10500000       0.09880000      -0.01040000
N       -0.86160000      -0.86360000       0.55340000
C        0.60190000      -1.04270000       0.84430000
C        1.06650000      -1.77250000      -0.39120000
C        0.96440000      -2.86750000      -1.13030000
C        0.64960000      -2.40510000      -2.55270000
O        0.26980000      -1.01580000      -2.44430000
C        0.82800000      -0.55920000      -1.23370000
H        0.93410000       2.08110000      -0.03420000
H       -0.81280000       2.01700000      -0.31320000
H       -0.16790000       1.77020000       1.31770000
H       -1.26770000      -0.40990000       1.37510000
H        0.97530000      -1.04480000       1.85980000
H        0.95020000      -3.90800000      -0.83330000
H        1.50040000      -2.50900000      -3.24620000
H       -0.19470000      -2.96340000      -2.97560000
H        1.73850000       0.03990000      -1.41280000
