19
Properties=species:S:1:pos:R:3 gdb_71646=T pbc="F F F"
C        0.00950000       1.52470000      -0.04780000
C       -0.00580000       0.01910000       0.05010000
C       -1.35660000      -0.68430000      -0.12500000
C       -1.11440000      -2.04450000       0.51340000
C        0.27370000      -2.65680000       0.40600000
C       -0.17640000      -1.92900000       1.67910000
C        0.69530000      -0.72280000       1.25880000
C        1.30790000      -1.54430000       0.11390000
O        0.92750000      -0.60060000      -0.89960000
H        1.02560000       1.90870000       0.07860000
H       -0.35720000       1.85150000      -1.02670000
H       -0.63160000       1.96570000       0.72290000
H       -2.15880000      -0.15660000       0.40630000
H       -1.61530000      -0.73330000      -1.18680000
H       -1.92880000      -2.75870000       0.57520000
H        0.40440000      -3.71790000       0.23130000
H       -0.34830000      -2.30680000       2.67770000
H        1.27960000      -0.14600000       1.97140000
H        2.35350000      -1.85290000       0.05670000
