16
Properties=species:S:1:pos:R:3 gdb_20221=T pbc="F F F"
C       -0.00810000       1.55310000      -0.07720000
O        1.21620000       2.21970000       0.20870000
C        2.28890000       1.39550000       0.54860000
C        2.20270000       0.16530000       1.40260000
C        0.91100000      -0.63730000       1.09550000
C        0.08070000       0.04970000       0.04190000
C        1.30340000      -0.73010000      -0.36840000
C        2.60100000       0.07110000      -0.08290000
H       -0.77490000       1.93700000       0.61210000
H       -0.31700000       1.82880000      -1.09640000
H        3.15550000       2.02060000       0.74140000
H        2.80730000       0.01010000       2.28760000
H        0.51690000      -1.40920000       1.74330000
H       -0.85740000      -0.45440000      -0.17770000
H        1.26050000      -1.58490000      -1.03020000
H        3.56100000      -0.16810000      -0.52330000
