18
Properties=species:S:1:pos:R:3 gdb_53295=T pbc="F F F"
C       -0.04100000       1.43560000       0.31260000
C       -0.05380000      -0.01670000       0.23860000
C       -0.08390000      -1.21940000       0.17690000
C       -0.08040000      -2.65170000       0.08550000
O       -0.75390000      -3.40200000       1.12570000
C       -1.29570000      -3.45630000      -0.18870000
C       -2.65960000      -2.86840000      -0.38210000
C       -3.73260000      -3.23540000       0.58010000
N       -3.18260000      -1.87080000       0.55110000
H        0.54370000       1.86520000      -0.50810000
H       -1.05630000       1.84110000       0.24900000
H        0.40190000       1.78180000       1.25280000
H        0.87400000      -3.09440000      -0.19970000
H       -1.13720000      -4.40790000      -0.70230000
H       -2.92180000      -2.69870000      -1.42490000
H       -4.76000000      -3.32880000       0.24040000
H       -3.45730000      -3.88390000       1.40760000
H       -2.51580000      -1.76430000       1.31370000
