18
Properties=species:S:1:pos:R:3 gdb_7693=T pbc="F F F"
C        0.04910000       1.47590000      -0.04680000
C        0.01810000      -0.03280000       0.08850000
O        0.98750000      -0.66200000      -0.81360000
C        1.74940000      -1.12170000       0.30270000
C        0.73870000      -0.60090000       1.30810000
C        0.97010000      -2.08990000       1.15570000
C       -0.03040000      -3.07090000       0.59700000
O        1.69750000      -2.54800000       2.27030000
H        1.05170000       1.86270000       0.15750000
H       -0.23710000       1.76850000      -1.06140000
H       -0.65400000       1.93580000       0.65660000
H       -0.99200000      -0.41790000      -0.10090000
H        2.83220000      -1.07510000       0.25290000
H        0.88110000      -0.10460000       2.25890000
H       -0.47090000      -2.69880000      -0.33000000
H        0.46630000      -4.02110000       0.36420000
H       -0.82670000      -3.27540000       1.31960000
H        2.23630000      -3.29330000       1.98130000
