22
Properties=species:S:1:pos:R:3 gdb_58353=T pbc="F F F"
C        0.50200000      -0.70630000       1.94570000
C        0.17150000      -0.01490000       0.62270000
O        0.98770000      -0.52100000      -0.43510000
C       -1.28140000      -0.17720000       0.09980000
C       -1.63850000      -1.64090000      -0.15370000
O       -2.74730000      -2.10300000      -0.04000000
N       -2.25330000       0.62250000       0.82970000
C       -3.26450000       1.23760000      -0.02020000
C       -2.85950000       0.02900000       2.02000000
H        1.57330000      -0.60460000       2.15910000
H       -0.03280000      -0.24740000       2.78030000
H        0.26560000      -1.77480000       1.91750000
H        0.32720000       1.06690000       0.74230000
H        1.89810000      -0.55110000      -0.12500000
H       -1.21390000       0.24170000      -0.91560000
H       -0.78380000      -2.26460000      -0.49240000
H       -3.97160000       0.51230000      -0.45610000
H       -3.84250000       1.95630000       0.57130000
H       -2.78530000       1.78870000      -0.83580000
H       -2.10790000      -0.48530000       2.62070000
H       -3.28240000       0.83150000       2.63560000
H       -3.65530000      -0.69290000       1.79080000
