16
Properties=species:S:1:pos:R:3 gdb_98746=T pbc="F F F"
C       -0.45290000       1.44480000      -0.41740000
O       -1.02050000       0.16270000      -0.72730000
C       -1.01210000      -0.72440000       0.27820000
O       -0.56640000      -0.50420000       1.37680000
C       -1.60930000      -2.05060000      -0.09220000
N       -2.66280000      -2.12240000      -1.09840000
C       -1.38610000      -2.77160000      -1.40390000
C       -0.60230000      -2.19100000      -2.54000000
O        0.26700000      -2.80580000      -3.10500000
H       -0.53650000       2.03190000      -1.33130000
H       -1.00580000       1.91910000       0.39670000
H        0.59310000       1.33920000      -0.12050000
H       -1.66610000      -2.69600000       0.77970000
H       -3.36540000      -2.80630000      -0.83130000
H       -1.29150000      -3.85220000      -1.31940000
H       -0.89850000      -1.16550000      -2.82810000
