18
Properties=species:S:1:pos:R:3 gdb_76992=T pbc="F F F"
C       -0.16740000       1.47750000      -0.06760000
C       -0.00760000      -0.02930000       0.03710000
N        0.98780000      -0.67900000      -0.84940000
C        1.30620000      -0.46550000      -2.14540000
O        0.67820000       0.23750000      -2.91310000
C        1.68200000      -1.34300000       0.23570000
C        2.22560000      -0.32070000       1.21350000
C        0.75560000      -0.66300000       1.22740000
O        0.12230000      -1.23710000       2.30730000
H        0.77930000       1.99590000       0.11080000
H       -0.51950000       1.74930000      -1.06460000
H       -0.89670000       1.82360000       0.67240000
H       -0.97780000      -0.52900000      -0.07060000
H        2.20690000      -1.04160000      -2.44370000
H        2.01810000      -2.36970000       0.16650000
H        2.77190000      -0.75410000       2.04630000
H        2.59970000       0.63540000       0.85950000
H        0.14460000      -0.61530000       3.04290000
