16
Properties=species:S:1:pos:R:3 gdb_46947=T pbc="F F F"
O        0.01430000      -0.01280000       0.13270000
C       -0.03580000       1.18820000      -0.00400000
C       -1.39120000       1.88060000      -0.18070000
O       -1.35620000       3.21950000      -0.64820000
C       -0.25380000       3.96220000      -0.18660000
C        0.20530000       3.77740000       1.28910000
N        1.51060000       3.16740000       0.85890000
C        1.12640000       3.41570000      -0.57390000
C        1.20560000       2.02530000      -0.05990000
H       -1.96390000       1.29530000      -0.90510000
H       -1.92560000       1.81460000       0.78070000
H       -0.43820000       4.99670000      -0.47710000
H        0.41210000       4.72790000       1.78450000
H       -0.40030000       3.15590000       1.95360000
H        1.81740000       3.81260000      -1.30950000
H        2.09890000       1.44570000      -0.26640000
