18
Properties=species:S:1:pos:R:3 gdb_116248=T pbc="F F F"
C        0.07740000       1.62710000       0.00410000
C       -0.05210000       0.10100000       0.00810000
C        0.69910000      -0.54740000      -1.14110000
O        2.09860000      -0.33060000      -1.00660000
C        2.71150000      -1.25490000      -1.85820000
O        1.86760000      -2.40960000      -1.91840000
C        0.65250000      -2.09280000      -1.26120000
C        0.57450000      -2.77890000       0.04380000
N        0.49600000      -3.32040000       1.06120000
H        1.12610000       1.92620000       0.07800000
H       -0.33330000       2.05980000      -0.91470000
H       -0.46270000       2.06220000       0.84930000
H        0.32570000      -0.31170000       0.94890000
H       -1.10700000      -0.19020000      -0.06650000
H        0.34930000      -0.14080000      -2.10530000
H        2.81990000      -0.85790000      -2.88060000
H        3.68890000      -1.52290000      -1.44550000
H       -0.18800000      -2.42730000      -1.87810000
