17
Properties=species:S:1:pos:R:3 gdb_128106=T pbc="F F F"
C        0.21690000       1.42340000       0.26020000
N        0.05410000      -0.00390000      -0.04960000
C       -1.27840000      -0.47000000       0.00820000
C       -1.84350000      -1.25460000       0.97040000
C       -1.28260000      -1.86340000       2.20190000
O       -3.13920000      -1.47760000       0.68800000
N       -3.47390000      -0.83280000      -0.51700000
C       -2.36820000      -0.24510000      -0.89200000
O       -2.28240000       0.47930000      -2.02100000
H        1.27480000       1.68670000       0.17010000
H       -0.36790000       2.08920000      -0.39170000
H       -0.09010000       1.60350000       1.29450000
H        0.45120000      -0.19710000      -0.96280000
H       -1.74240000      -1.44050000       3.10160000
H       -1.45640000      -2.94400000       2.21860000
H       -0.20800000      -1.67180000       2.22960000
H       -3.14880000       0.46030000      -2.44940000
