20
Properties=species:S:1:pos:R:3 gdb_67805=T pbc="F F F"
C       -0.02330000       1.50420000       0.02250000
C       -0.05270000       0.00690000      -0.13120000
C        0.90240000      -0.68780000      -1.03580000
C        0.48510000      -1.93880000      -1.26980000
C       -0.71860000      -2.20960000      -0.41000000
C       -0.20270000      -2.15660000       1.07280000
N       -0.47680000      -0.70180000       1.18350000
C       -1.30090000      -0.79620000      -0.07140000
C       -2.72170000      -0.34290000      -0.19540000
H        0.94760000       1.83280000       0.40860000
H       -0.18830000       1.99910000      -0.94100000
H       -0.78750000       1.84040000       0.72630000
H        1.81410000      -0.22730000      -1.39660000
H        1.01730000      -2.70560000      -1.81980000
H       -1.37890000      -3.02690000      -0.69670000
H       -0.88080000      -2.66940000       1.76000000
H        0.82970000      -2.47120000       1.25840000
H       -2.85180000       0.65260000       0.23790000
H       -3.02740000      -0.30330000      -1.24720000
H       -3.40070000      -1.02650000       0.32660000
