14
Properties=species:S:1:pos:R:3 gdb_69225=T pbc="F F F"
C       -0.07480000       1.53220000       0.03270000
C        0.14540000       0.05240000       0.02540000
O       -0.71240000      -0.78750000       0.82000000
C        0.69730000      -0.80340000       1.08860000
C        1.35910000      -1.95550000       0.41250000
N        2.07900000      -2.83230000       0.94780000
O        1.06740000      -1.88340000      -0.94680000
C        0.46460000      -0.67470000      -1.26530000
O        0.27630000      -0.33260000      -2.38920000
H        0.82090000       2.05620000      -0.31310000
H       -0.89710000       1.79070000      -0.64000000
H       -0.32120000       1.87050000       1.04120000
H        1.02600000      -0.46260000       2.06270000
H        2.42630000      -3.50180000       0.25850000
