18
Properties=species:S:1:pos:R:3 gdb_8403=T pbc="F F F"
C       -0.05370000       1.53620000       0.01610000
C       -0.04250000       0.00610000       0.04870000
O        0.55120000      -0.49360000       1.23990000
C       -1.42840000      -0.57320000      -0.07930000
C       -2.61680000      -0.26350000      -1.02830000
C       -3.11370000      -1.14220000       0.14320000
C       -1.87960000      -2.05590000      -0.01440000
O       -2.33910000      -0.29060000       1.07910000
H        0.95390000       1.91440000       0.20450000
H       -0.39220000       1.90980000      -0.95590000
H       -0.72680000       1.92690000       0.78550000
H        0.57200000      -0.37850000      -0.77490000
H       -0.10800000      -0.38500000       1.93740000
H       -2.96900000       0.76830000      -1.01610000
H       -2.59930000      -0.70070000      -2.02970000
H       -4.13330000      -1.39460000       0.43250000
H       -1.79430000      -2.65510000      -0.92440000
H       -1.57510000      -2.59310000       0.88340000
