17
Properties=species:S:1:pos:R:3 gdb_50654=T pbc="F F F"
O       -0.69730000       0.89970000      -0.63740000
C        0.14940000       0.98420000       0.21550000
C        1.38370000       1.85360000       0.11190000
C        1.45330000       2.63810000      -1.19950000
O        2.65650000       3.38470000      -1.26370000
C        2.73870000       4.39380000      -0.27580000
C        2.56670000       3.85940000       1.14680000
O        3.22220000       4.27210000       2.07150000
C        1.46410000       2.81940000       1.31880000
H        0.06410000       0.41440000       1.16950000
H        2.25390000       1.18170000       0.16130000
H        1.45800000       1.96430000      -2.05820000
H        0.57500000       3.29620000      -1.29530000
H        3.71940000       4.86480000      -0.36250000
H        1.96560000       5.16830000      -0.43870000
H        0.51990000       3.38000000       1.39160000
H        1.61100000       2.30220000       2.27030000
