18
Properties=species:S:1:pos:R:3 gdb_93384=T pbc="F F F"
O       -0.15800000       1.46130000       0.39810000
C        0.03090000       0.09030000       0.07540000
C        0.91410000      -0.64680000       1.09670000
C        0.74860000      -2.17430000       0.95470000
C       -0.68320000      -2.48000000       1.35590000
O       -0.99830000      -3.16710000       2.29660000
N       -1.63730000      -1.82490000       0.55700000
C       -2.32370000      -0.64090000       1.05940000
C       -1.34750000      -0.54030000      -0.07040000
H        0.69980000       1.89770000       0.36310000
H        0.51780000      -0.00010000      -0.90940000
H        1.96020000      -0.35250000       0.95770000
H        0.62940000      -0.33540000       2.10870000
H        0.93480000      -2.48000000      -0.08210000
H        1.42470000      -2.72640000       1.60870000
H       -3.38850000      -0.58000000       0.85490000
H       -2.02220000      -0.27040000       2.03510000
H       -1.77280000      -0.44340000      -1.06690000
