18
Properties=species:S:1:pos:R:3 gdb_71859=T pbc="F F F"
C       -0.06690000       1.52490000       0.02690000
C       -0.02890000       0.03130000      -0.05590000
C        0.81210000      -0.80830000      -1.03440000
C       -0.15850000      -2.01120000      -0.78130000
C        0.38270000      -2.89010000       0.34300000
C        0.53500000      -1.85790000       1.47000000
O        1.25360000      -1.91740000       2.42640000
N       -0.33730000      -0.74420000       1.19510000
C       -1.09100000      -1.01070000      -0.03690000
H        0.87720000       1.91540000       0.42240000
H       -0.22250000       1.96040000      -0.96620000
H       -0.87240000       1.85340000       0.68780000
H        0.70790000      -0.41310000      -2.04820000
H        1.87500000      -0.95640000      -0.81410000
H       -0.53620000      -2.53060000      -1.65990000
H       -0.33490000      -3.66410000       0.64250000
H        1.34150000      -3.37170000       0.13880000
H       -2.17270000      -0.94760000      -0.02200000
