21
Properties=species:S:1:pos:R:3 gdb_69823=T pbc="F F F"
C        0.03500000       1.51480000       0.00830000
C       -0.02760000       0.00050000       0.02440000
C       -0.86770000      -0.65610000       1.08840000
C        0.64240000      -0.72270000       1.18350000
C        1.35550000      -2.01790000       0.91930000
O        0.59190000      -3.23020000       0.88330000
C        1.14110000      -2.73910000      -0.34770000
C        0.15400000      -2.17830000      -1.36100000
C        0.09640000      -0.63720000      -1.35200000
H        0.96650000       1.86910000      -0.44910000
H       -0.79780000       1.93930000      -0.56520000
H       -0.01700000       1.92620000       1.02140000
H       -1.38550000      -0.01470000       1.79350000
H       -1.37870000      -1.58660000       0.87270000
H        1.11260000      -0.10100000       1.93900000
H        2.31800000      -2.12370000       1.41930000
H        1.94860000      -3.35620000      -0.74100000
H        0.42380000      -2.51620000      -2.36640000
H       -0.83400000      -2.59940000      -1.14750000
H       -0.73470000      -0.30610000      -1.98750000
H        1.01080000      -0.24640000      -1.82080000
