21
Properties=species:S:1:pos:R:3 gdb_115931=T pbc="F F F"
C        0.07190000       1.36120000      -0.07430000
O       -0.00380000      -0.04040000       0.06470000
C       -1.31930000      -0.56780000       0.05330000
C       -1.84160000      -0.74660000      -1.37840000
O       -3.18740000      -1.19360000      -1.38620000
C       -3.45290000      -2.32630000      -0.60600000
C       -2.66230000      -3.59980000      -0.71530000
C       -2.55070000      -2.73040000       0.53200000
C       -1.27920000      -1.91740000       0.77380000
H        1.12720000       1.63410000       0.00410000
H       -0.30610000       1.71550000      -1.04430000
H       -0.48770000       1.87740000       0.72100000
H       -2.00790000       0.11260000       0.58000000
H       -1.84690000       0.20280000      -1.92000000
H       -1.17830000      -1.43650000      -1.92350000
H       -4.52600000      -2.40870000      -0.47040000
H       -3.19780000      -4.54100000      -0.65360000
H       -1.80190000      -3.62160000      -1.37610000
H       -3.03950000      -3.10450000       1.42560000
H       -0.39180000      -2.45590000       0.42140000
H       -1.13460000      -1.74760000       1.84440000
