23
Properties=species:S:1:pos:R:3 gdb_76865=T pbc="F F F"
C        0.41550000       1.79850000      -0.42980000
C        0.05290000       0.32170000      -0.29900000
C        1.00460000      -0.72270000      -0.98710000
C        2.07400000      -0.25640000      -1.96660000
C        1.43710000      -1.23630000       0.42480000
C        2.69130000      -0.65820000       1.02610000
C        2.43790000       0.22550000       1.99280000
C        0.95740000       0.42630000       2.22940000
C        0.30680000      -0.37920000       1.08460000
H        1.43240000       2.01180000      -0.08870000
H        0.34180000       2.12170000      -1.47370000
H       -0.27100000       2.42330000       0.15220000
H       -0.98400000       0.19940000      -0.62870000
H        0.39680000      -1.49230000      -1.47540000
H        2.73180000       0.49870000      -1.52610000
H        2.70250000      -1.09700000      -2.28270000
H        1.62580000       0.17440000      -2.86890000
H        1.39840000      -2.32560000       0.54200000
H        3.68490000      -0.95880000       0.70930000
H        3.19380000       0.74340000       2.57450000
H        0.66110000       0.04610000       3.21690000
H        0.67360000       1.48560000       2.21820000
H       -0.56550000      -0.94300000       1.42020000
