15
Properties=species:S:1:pos:R:3 gdb_37752=T pbc="F F F"
O       -1.35080000       1.14850000      -0.83730000
C        1.74360000       1.11540000       0.40730000
C        2.56010000       0.24230000       1.04480000
C        2.32770000      -1.11890000       0.55890000
C        1.38740000      -1.06220000      -0.41640000
C        0.33540000      -1.91680000      -0.91850000
C       -0.77740000      -1.18280000      -1.17190000
C       -0.54350000       0.25370000      -0.86590000
C        0.99830000       0.36800000      -0.65470000
H        1.72340000       2.18960000       0.52970000
H        3.27370000       0.49410000       1.82010000
H        2.74440000      -2.01200000       1.00770000
H        0.40510000      -2.99550000      -1.00510000
H       -1.73050000      -1.54880000      -1.53160000
H        1.36840000       0.69910000      -1.63990000
