19
Properties=species:S:1:pos:R:3 gdb_22979=T pbc="F F F"
O       -1.47990000      -0.37180000       2.23370000
C       -2.04640000       0.28870000       1.10000000
C       -1.47100000      -0.23470000      -0.18600000
N       -0.13960000       0.29490000      -0.39830000
O        0.37950000       0.05540000      -1.46880000
C       -1.98100000      -1.17410000      -0.99940000
C       -3.24990000      -1.93790000      -0.83990000
C       -3.01840000      -3.28220000      -0.06520000
N       -2.79690000      -3.17950000       1.36500000
H       -3.63220000      -2.83780000       1.82990000
H       -2.05740000      -2.52010000       1.59480000
H       -0.53360000      -0.18410000       2.22190000
H       -3.12250000       0.11420000       1.15210000
H       -1.87330000       1.37180000       1.16530000
H       -1.34170000      -1.45110000      -1.83770000
H       -4.01420000      -1.36200000      -0.30780000
H       -3.64800000      -2.17810000      -1.83300000
H       -3.89820000      -3.91290000      -0.23260000
H       -2.16900000      -3.80520000      -0.52040000
