17
Properties=species:S:1:pos:R:3 gdb_52259=T pbc="F F F"
N       -0.49440000       1.11200000       0.10800000
C       -0.63630000      -0.09400000       0.44570000
O       -0.49290000      -1.06820000      -0.48140000
C       -0.77070000      -2.40000000      -0.07950000
C       -2.23050000      -2.77800000      -0.28780000
C       -2.54770000      -4.25520000       0.07310000
N       -3.47950000      -4.18080000       1.21150000
C       -3.67610000      -2.94760000       1.41500000
O       -3.06110000      -2.02200000       0.63610000
H       -0.60900000       1.71480000       0.92000000
H       -0.86060000      -0.47600000       1.44920000
H       -0.14220000      -3.04460000      -0.70210000
H       -0.49300000      -2.56310000       0.97110000
H       -2.53840000      -2.49970000      -1.29890000
H       -3.01320000      -4.79840000      -0.75460000
H       -1.64940000      -4.81330000       0.36310000
H       -4.31820000      -2.52920000       2.18200000
