19
Properties=species:S:1:pos:R:3 gdb_17586=T pbc="F F F"
C        0.01390000       1.52120000       0.00750000
C       -0.05450000       0.02380000       0.07460000
N        1.14080000      -0.75990000      -0.26960000
C        0.54460000      -0.96070000       1.05920000
C        1.39500000      -0.74820000       2.27700000
C       -0.70880000      -1.81560000       0.97940000
C       -1.92500000      -1.00510000       1.34980000
C       -1.31390000      -0.82090000      -0.01620000
H        0.99030000       1.87960000       0.34380000
H       -0.13120000       1.87320000      -1.02080000
H       -0.76250000       1.97910000       0.62960000
H        0.92550000      -1.52620000      -0.90480000
H        2.07770000       0.09280000       2.13040000
H        0.77700000      -0.55020000       3.15920000
H        2.00390000      -1.63540000       2.48810000
H       -0.73390000      -2.89910000       0.92780000
H       -2.86620000      -1.54770000       1.37950000
H       -1.84680000      -0.21480000       2.09180000
H       -1.86050000      -1.04720000      -0.92570000
