13
Properties=species:S:1:pos:R:3 gdb_1393=T pbc="F F F"
C        0.05190000       1.48440000      -0.01650000
C        0.03190000       0.02970000      -0.00060000
C        0.00200000      -1.17370000       0.02930000
C       -0.02050000      -2.64050000       0.02770000
O       -1.29530000      -3.18870000       0.22810000
C        0.55420000      -3.11060000      -1.31330000
O       -0.08630000      -3.80990000      -2.05530000
H        0.84990000       1.87780000       0.62230000
H        0.21110000       1.87030000      -1.02910000
H       -0.89760000       1.89000000       0.34880000
H        0.66620000      -3.00630000       0.81140000
H       -1.51630000      -3.63290000      -0.60660000
H        1.57290000      -2.75390000      -1.55700000
