21
Properties=species:S:1:pos:R:3 gdb_87845=T pbc="F F F"
C       -0.09130000       1.50340000      -0.01830000
C        0.01610000      -0.00380000       0.04170000
C        1.34340000      -0.69640000      -0.19570000
C        0.71910000      -0.69820000       1.17240000
C        1.29710000      -0.01010000       2.42880000
C        0.89410000      -1.11630000       3.43290000
C        1.32620000      -2.42870000       2.74070000
C        0.16580000      -1.95820000       1.83520000
O       -0.48270000      -1.40800000       3.02950000
H        0.81740000       1.98430000       0.35830000
H       -0.24320000       1.84640000      -1.04760000
H       -0.93230000       1.86700000       0.58270000
H       -0.85580000      -0.52610000      -0.34790000
H        1.35430000      -1.62110000      -0.76570000
H        2.21690000      -0.07030000      -0.35450000
H        2.37770000       0.15680000       2.38690000
H        0.80210000       0.93500000       2.66580000
H        1.01660000      -0.92850000       4.49950000
H        2.33160000      -2.50940000       2.31950000
H        1.05850000      -3.30690000       3.32890000
H       -0.46150000      -2.62950000       1.24750000
