18
Properties=species:S:1:pos:R:3 gdb_13111=T pbc="F F F"
C       -0.01880000       1.55030000       0.12780000
C       -0.09820000       0.03510000      -0.07340000
C        0.89800000      -0.47790000      -1.12020000
C        0.79260000      -1.97920000      -1.34200000
O       -0.47080000      -2.40090000      -1.92570000
C        0.14190000      -3.00070000      -3.08380000
C        1.51840000      -2.57170000      -2.55970000
O        2.64780000      -2.64110000      -2.93560000
H        0.97910000       1.85570000       0.46180000
H       -0.23330000       2.08520000      -0.80390000
H       -0.73960000       1.88840000       0.87860000
H        0.08730000      -0.47570000       0.88070000
H       -1.11000000      -0.24920000      -0.38350000
H        0.73410000       0.03760000      -2.07510000
H        1.92820000      -0.25590000      -0.81220000
H        0.99560000      -2.52710000      -0.40940000
H       -0.01480000      -4.08580000      -3.14150000
H       -0.17320000      -2.53860000      -4.02790000
