19
Properties=species:S:1:pos:R:3 gdb_50243=T pbc="F F F"
O       -0.60010000       0.50520000      -0.20430000
C       -0.15210000       1.62460000      -0.22010000
C        1.30140000       1.96750000      -0.02380000
C        1.84060000       3.08350000      -0.97790000
C        1.99640000       4.05170000       0.23190000
C        0.87190000       5.02960000       0.44370000
C        0.06200000       4.67370000       1.44240000
C        0.48850000       3.38740000       2.11560000
C        1.63880000       2.88880000       1.21360000
H       -0.81630000       2.50170000      -0.39720000
H        1.86590000       1.03370000      -0.03730000
H        2.78590000       2.80630000      -1.44930000
H        1.14890000       3.41150000      -1.75980000
H        2.98180000       4.51950000       0.32450000
H        0.75430000       5.92050000      -0.16500000
H       -0.80550000       5.23740000       1.76920000
H        0.83030000       3.57310000       3.14270000
H       -0.33070000       2.66220000       2.20110000
H        2.47230000       2.47820000       1.78400000
