18
Properties=species:S:1:pos:R:3 gdb_25629=T pbc="F F F"
C       -0.04360000       1.49260000      -0.03960000
C       -0.01140000       0.03770000      -0.04310000
C        0.01150000      -1.16990000      -0.04630000
C        0.02490000      -2.58520000      -0.05100000
C        1.15690000      -3.38790000       0.03060000
C        2.59580000      -3.01440000       0.14000000
N        0.72950000      -4.68910000      -0.00680000
C       -0.64220000      -4.74530000      -0.10990000
C       -1.10980000      -3.45920000      -0.13970000
H        0.51930000       1.91190000      -0.88200000
H       -1.07180000       1.86430000      -0.11570000
H        0.38610000       1.90470000       0.88120000
H        3.05520000      -3.39820000       1.05980000
H        3.18740000      -3.39100000      -0.70400000
H        2.68300000      -1.92600000       0.15100000
H        1.33740000      -5.48850000       0.03560000
H       -1.15790000      -5.69080000      -0.15240000
H       -2.14010000      -3.15040000      -0.21570000
