16
Properties=species:S:1:pos:R:3 gdb_28891=T pbc="F F F"
C        0.03600000       1.50210000      -0.04360000
C        0.02670000      -0.00440000      -0.01680000
C        0.11080000      -0.74850000      -1.19240000
O        0.20690000      -0.20800000      -2.44450000
C        0.09980000      -2.14580000      -1.13360000
O        0.18000000      -2.90150000      -2.25960000
C        0.00410000      -2.74690000       0.11640000
N       -0.07770000      -2.05660000       1.25640000
C       -0.06560000      -0.72740000       1.17590000
H        0.96020000       1.90280000      -0.48090000
H       -0.80620000       1.91130000      -0.61760000
H       -0.04060000       1.90400000       0.96940000
H        0.20640000       0.75240000      -2.38940000
H        0.23940000      -2.30240000      -3.01410000
H       -0.00570000      -3.83180000       0.17870000
H       -0.13320000      -0.18510000       2.11700000
