17
Properties=species:S:1:pos:R:3 gdb_66708=T pbc="F F F"
C        0.02000000       1.48240000       0.08000000
C        0.00480000      -0.00560000      -0.01370000
C        0.26700000      -0.99210000      -1.19800000
C       -0.64100000      -2.02000000      -0.54120000
C        0.84700000      -2.01600000      -0.23710000
C        0.60980000      -1.04040000       0.96060000
C        1.27170000      -0.83850000       2.18900000
C        1.84730000      -0.66310000       3.23380000
C       -0.89850000      -1.03520000       0.63450000
H        0.98630000       1.89180000      -0.23580000
H       -0.75900000       1.93040000      -0.54790000
H       -0.15410000       1.80040000       1.11330000
H        0.48760000      -0.82610000      -2.24380000
H       -1.25130000      -2.79240000      -0.98810000
H        1.59580000      -2.77850000      -0.40130000
H        2.35000000      -0.51120000       4.15610000
H       -1.72070000      -0.90380000       1.32560000
