18
Properties=species:S:1:pos:R:3 gdb_55877=T pbc="F F F"
C        0.86820000       0.39330000      -0.32310000
C       -0.39120000       0.46340000       0.51380000
O       -0.50340000       1.20210000       1.46400000
C       -1.57340000      -0.41420000       0.08800000
N       -1.14470000      -1.65250000      -0.54940000
C       -1.07270000      -2.84040000       0.28660000
C       -2.15000000      -2.71380000      -0.75070000
C       -3.52050000      -2.53850000      -0.35540000
C       -4.67840000      -2.38720000      -0.06680000
H        1.33020000      -0.59390000      -0.22080000
H        0.63250000       0.50860000      -1.38600000
H        1.56510000       1.16640000       0.00250000
H       -2.22330000      -0.55410000       0.96190000
H       -2.14610000       0.16540000      -0.64940000
H       -0.23230000      -3.50510000       0.10630000
H       -1.38580000      -2.75600000       1.32540000
H       -2.01730000      -3.25000000      -1.68780000
H       -5.69870000      -2.25920000       0.19900000
