18
Properties=species:S:1:pos:R:3 gdb_7905=T pbc="F F F"
C       -0.05120000       1.61230000      -0.05100000
C        0.02170000       0.07890000       0.01200000
C        0.73050000      -0.57350000      -1.19590000
C        1.84780000      -1.43930000      -0.59970000
O        2.60920000      -2.15240000      -1.21340000
C        1.82880000      -1.24530000       0.87530000
C        2.82120000      -1.92760000       1.75880000
C        0.82410000      -0.41780000       1.19390000
H        0.95020000       2.04560000      -0.14750000
H       -0.64710000       1.93920000      -0.90880000
H       -0.51000000       2.02460000       0.85390000
H       -1.00620000      -0.30030000       0.09810000
H        0.07000000      -1.19150000      -1.81060000
H        1.17590000       0.17170000      -1.86370000
H        3.84210000      -1.63870000       1.48580000
H        2.65980000      -1.69080000       2.81330000
H        2.76700000      -3.01390000       1.62860000
H        0.58020000      -0.10440000       2.20580000
