18
Properties=species:S:1:pos:R:3 gdb_123426=T pbc="F F F"
C        0.07450000       1.27060000       0.67650000
C       -0.06240000      -0.08700000       0.02190000
C       -1.36730000      -0.60620000      -0.44180000
N       -0.35280000      -0.17510000      -1.42700000
C        1.39620000       1.92030000       0.37720000
C        2.12650000       2.88770000       1.04190000
C        3.26830000       3.09490000       0.23980000
N        3.26460000       2.31990000      -0.84100000
N        2.11720000       1.62140000      -0.73670000
H       -0.75190000       1.91370000       0.33950000
H       -0.03780000       1.17710000       1.76280000
H        0.68240000      -0.81430000       0.33960000
H       -1.56490000      -1.67370000      -0.42470000
H       -2.24550000       0.01930000      -0.30390000
H       -0.61280000       0.74680000      -1.77410000
H        1.86670000       3.36920000       1.97110000
H        4.09240000       3.77280000       0.40800000
H        1.89250000       0.92660000      -1.43190000
