18
Properties=species:S:1:pos:R:3 gdb_13519=T pbc="F F F"
C       -0.84620000       1.23760000       0.25710000
C       -0.16460000      -0.10770000       0.10210000
O        0.85320000      -0.08750000      -0.91740000
C        1.87100000      -0.52860000       0.00460000
C        0.87940000      -0.58450000       1.17930000
C        1.13280000       0.36930000       2.33230000
C        0.37640000       0.08580000       3.61620000
O        1.88180000       1.31470000       2.22430000
H       -0.12570000       2.01790000       0.51400000
H       -1.32500000       1.50780000      -0.68920000
H       -1.62250000       1.19850000       1.02960000
H       -0.91030000      -0.88660000      -0.10960000
H        2.30250000      -1.49220000      -0.28990000
H        2.66240000       0.21700000       0.12890000
H        0.65950000      -1.58570000       1.55570000
H        0.73240000      -0.85450000       4.05410000
H        0.52640000       0.89800000       4.32820000
H       -0.69280000      -0.04620000       3.41580000
