18
Properties=species:S:1:pos:R:3 gdb_68210=T pbc="F F F"
O        0.05420000       1.37130000      -0.15950000
C        0.04590000      -0.01230000      -0.04030000
C        0.38920000      -0.79290000       1.26470000
N       -0.47470000      -1.89400000       0.67290000
C       -1.29860000      -0.76400000       0.08090000
C        0.35280000      -2.24930000      -0.53480000
C        0.77850000      -0.86740000      -1.09790000
C        1.47150000      -3.18860000      -0.13180000
O        2.63050000      -3.04970000      -0.42960000
H        0.94120000       1.65790000      -0.40120000
H        1.42600000      -1.07000000       1.47640000
H       -0.08980000      -0.38100000       2.15440000
H       -1.96450000      -0.34830000       0.83970000
H       -1.85510000      -1.01700000      -0.82620000
H       -0.28950000      -2.81140000      -1.22530000
H        0.41100000      -0.67720000      -2.10930000
H        1.86470000      -0.73840000      -1.08460000
H        1.12560000      -4.04700000       0.48450000
