12
Properties=species:S:1:pos:R:3 gdb_132721=T pbc="F F F"
F       -0.00810000       0.04960000       0.00360000
C       -0.01510000       1.37320000       0.01070000
N       -1.19800000       1.94660000       0.02930000
C       -1.22940000       3.27830000       0.03680000
C       -0.07580000       4.07120000       0.02590000
C        1.17030000       3.42450000       0.00610000
C        1.20860000       2.04260000      -0.00180000
C       -0.17360000       5.49500000       0.03470000
N       -0.25230000       6.64990000       0.04190000
H       -2.21010000       3.74390000       0.05220000
H        2.08450000       4.00610000      -0.00290000
H        2.13760000       1.48760000      -0.01700000
