17
Properties=species:S:1:pos:R:3 gdb_44229=T pbc="F F F"
O       -0.07560000       0.06600000      -0.42580000
C       -0.08950000       1.21710000      -0.10630000
C       -1.17830000       2.28860000       0.14210000
C       -0.00250000       3.29010000       0.07190000
N        0.98070000       2.14420000       0.05820000
C        1.62630000       2.63340000      -1.20930000
C        0.54620000       3.72780000      -1.29890000
C       -0.20810000       4.23480000      -2.46630000
N        0.78830000       5.07810000      -1.77500000
H       -1.93000000       2.34220000      -0.64770000
H       -1.67760000       2.22750000       1.11240000
H        0.09900000       4.01350000       0.88520000
H        2.63250000       3.02120000      -1.03300000
H        1.65210000       1.87850000      -1.99930000
H        0.07130000       3.92910000      -3.47090000
H       -1.26540000       4.45380000      -2.33530000
H        0.32710000       5.75960000      -1.17640000
