21
Properties=species:S:1:pos:R:3 gdb_116516=T pbc="F F F"
O        0.06140000       1.41410000       0.19470000
C        0.05790000       0.01930000      -0.01300000
C       -1.36570000      -0.53530000      -0.06520000
C       -1.38810000      -2.06420000      -0.18140000
C       -2.71890000      -2.64960000      -0.69520000
O       -3.87410000      -1.88570000      -0.39180000
C       -4.01580000      -1.47710000       0.95630000
C       -3.38010000      -0.10790000       1.19250000
O       -1.96560000      -0.11040000       1.16440000
H       -0.55590000       1.56010000       0.92260000
H        0.56130000      -0.17120000      -0.96650000
H        0.61840000      -0.51040000       0.77590000
H       -1.89880000      -0.06800000      -0.90650000
H       -0.58830000      -2.39850000      -0.85440000
H       -1.14600000      -2.46080000       0.81030000
H       -2.70910000      -2.70090000      -1.78860000
H       -2.83250000      -3.67930000      -0.32020000
H       -5.09250000      -1.39810000       1.15080000
H       -3.60210000      -2.22110000       1.65260000
H       -3.77950000       0.58770000       0.43780000
H       -3.65870000       0.26220000       2.18560000
