17
Properties=species:S:1:pos:R:3 gdb_32293=T pbc="F F F"
C       -0.00330000       1.42300000       0.14880000
N       -0.03780000       0.00510000      -0.09040000
C        0.60740000      -0.60070000      -1.12630000
C        1.22630000       0.02150000      -2.18460000
C        1.83980000      -0.74320000      -3.21760000
C        1.82420000      -2.09750000      -3.15400000
N        1.21380000      -2.71230000      -2.08340000
C        0.59310000      -2.06710000      -1.03310000
O        0.08030000      -2.68050000      -0.09890000
H        1.02260000       1.80670000       0.26340000
H       -0.47490000       1.97740000      -0.67380000
H       -0.55720000       1.64600000       1.06260000
H       -0.31170000      -0.63370000       0.64150000
H        1.24720000       1.10380000      -2.24310000
H        2.31880000      -0.24890000      -4.05260000
H        2.26350000      -2.75320000      -3.89290000
H        1.20220000      -3.72000000      -2.01430000
