17
Properties=species:S:1:pos:R:3 gdb_102083=T pbc="F F F"
O        0.22220000       1.42040000      -0.00750000
C        0.09320000       0.00980000      -0.05210000
C       -1.39010000      -0.43990000      -0.00160000
C       -2.12120000       0.12220000      -1.20380000
O       -2.85480000      -0.51460000      -1.92230000
C       -1.50570000      -1.97990000       0.11990000
O       -0.66520000      -2.45880000       1.13680000
C       -2.93670000      -2.41890000       0.40110000
O       -3.19960000      -3.02990000       1.41110000
H        0.09810000       1.70450000       0.90350000
H        0.54360000      -0.30920000      -0.99880000
H        0.63430000      -0.48660000       0.75860000
H       -1.82750000       0.02510000       0.89630000
H       -1.91000000       1.19280000      -1.39860000
H       -1.22410000      -2.41630000      -0.85350000
H       -1.25550000      -2.92070000       1.75610000
H       -3.69680000      -2.15650000      -0.35140000
