18
Properties=species:S:1:pos:R:3 gdb_99207=T pbc="F F F"
C       -0.09010000       1.44600000      -0.03280000
C        0.00220000      -0.06230000      -0.01860000
O        1.05720000      -0.65650000      -0.03570000
C       -1.31840000      -0.82260000       0.01920000
N       -1.06160000      -2.23900000       0.02940000
C       -2.05190000      -3.15470000       0.06140000
O       -3.23950000      -2.85750000       0.08440000
C       -1.63290000      -4.62810000       0.06850000
O       -2.76790000      -5.44080000       0.10250000
H        0.91060000       1.87740000      -0.06160000
H       -0.66410000       1.78370000      -0.90270000
H       -0.62120000       1.80260000       0.85670000
H       -1.89150000      -0.51020000       0.90340000
H       -1.93010000      -0.52990000      -0.84550000
H       -0.08500000      -2.50050000       0.01050000
H       -1.02420000      -4.82960000      -0.82780000
H       -0.98520000      -4.81000000       0.94130000
H       -3.51180000      -4.81390000       0.11200000
