20
Properties=species:S:1:pos:R:3 gdb_113302=T pbc="F F F"
C        0.31240000       1.56820000       0.21410000
C       -0.13980000       0.13260000      -0.07560000
C        0.59380000      -0.49400000      -1.26120000
C        1.95430000      -1.15240000      -1.05450000
C        0.77600000      -2.00370000      -1.41940000
C        0.18350000      -2.99780000      -0.45230000
O        0.94100000      -4.19280000      -0.57670000
C        0.41420000       0.22560000      -2.50090000
N        0.25480000       0.81010000      -3.48710000
H        1.38120000       1.60440000       0.44810000
H        0.13540000       2.21940000      -0.64690000
H       -0.23550000       1.97930000       1.06690000
H        0.02820000      -0.48750000       0.80950000
H       -1.21840000       0.11580000      -0.27160000
H        2.72860000      -0.98440000      -1.79290000
H        2.30450000      -1.19090000      -0.02790000
H        0.75130000      -2.35540000      -2.44620000
H        0.22210000      -2.61230000       0.57700000
H       -0.87560000      -3.16980000      -0.70020000
H        0.51710000      -4.87310000      -0.04480000
