15
Properties=species:S:1:pos:R:3 gdb_29319=T pbc="F F F"
C       -0.00220000       1.53260000      -0.00390000
C       -0.00710000       0.03570000      -0.01030000
C       -0.13380000      -0.81060000      -1.09710000
N       -0.08840000      -2.10350000      -0.67910000
C        0.06890000      -2.13150000       0.70020000
C        0.15470000      -3.30070000       1.46930000
N        0.23080000      -4.24160000       2.14740000
C        0.12060000      -0.80540000       1.12250000
O        0.26610000      -0.33830000       2.38180000
H        0.93180000       1.92940000       0.40870000
H       -0.11720000       1.92850000      -1.01650000
H       -0.81630000       1.93450000       0.60910000
H       -0.25300000      -0.57000000      -2.14200000
H       -0.16040000      -2.91880000      -1.26130000
H        0.33850000      -1.08040000       2.99410000
