16
Properties=species:S:1:pos:R:3 gdb_56087=T pbc="F F F"
C       -0.06130000       1.45060000      -0.13280000
C        0.06530000      -0.03680000       0.06430000
N        0.21620000      -0.69610000       1.13740000
O       -0.00390000      -0.66930000      -1.13110000
C        0.10440000      -2.09690000      -1.07680000
C        0.01260000      -2.62880000      -2.42340000
C       -0.05830000      -3.12140000      -3.52340000
C       -0.14810000      -3.66100000      -4.85530000
O       -0.08920000      -4.83890000      -5.12310000
H       -0.00730000       1.97530000       0.82200000
H        0.73650000       1.81230000      -0.78820000
H       -1.01230000       1.68580000      -0.61980000
H        0.24890000      -0.07720000       1.94360000
H        1.05400000      -2.38230000      -0.60850000
H       -0.68800000      -2.50810000      -0.43990000
H       -0.27970000      -2.89160000      -5.64310000
