21
Properties=species:S:1:pos:R:3 gdb_90414=T pbc="F F F"
C        0.35380000       1.60270000      -0.18090000
C        0.07820000       0.11840000       0.01210000
C        0.78650000      -0.91990000      -0.91310000
C        1.20320000      -1.76780000       0.32360000
C        2.65140000      -1.54210000       0.85900000
C        3.88050000      -1.46320000      -0.03400000
C        2.12760000      -0.27900000       1.56820000
O        2.66810000       0.64650000       2.10620000
C        0.66050000      -0.62210000       1.25930000
H        1.42500000       1.82320000      -0.15180000
H       -0.03630000       1.94300000      -1.14670000
H       -0.12490000       2.20000000       0.60240000
H       -1.00270000      -0.05490000      -0.00840000
H        0.12560000      -1.43000000      -1.61710000
H        1.62630000      -0.51010000      -1.48180000
H        0.82240000      -2.78740000       0.36500000
H        2.82310000      -2.28160000       1.65600000
H        3.74310000      -0.75120000      -0.85310000
H        4.74490000      -1.12960000       0.54820000
H        4.11960000      -2.43830000      -0.47020000
H        0.00760000      -0.76590000       2.12210000
