15
Properties=species:S:1:pos:R:3 gdb_11582=T pbc="F F F"
N       -0.01360000       1.30310000       0.30670000
C        0.03690000      -0.00190000      -0.10050000
O        1.06530000      -0.54920000      -0.45240000
C       -1.25160000      -0.67150000      -0.09360000
C       -2.29040000      -1.28760000      -0.10910000
C       -3.51280000      -2.02720000      -0.13230000
C       -3.74250000      -3.07260000      -1.21810000
C       -3.50040000      -3.51760000       0.18900000
H        0.85810000       1.79620000       0.41180000
H       -0.85090000       1.69360000       0.70200000
H       -4.39240000      -1.47950000       0.19210000
H       -4.74580000      -3.14220000      -1.62230000
H       -2.94780000      -3.20870000      -1.94130000
H       -2.54030000      -3.95810000       0.42790000
H       -4.33480000      -3.89800000       0.76700000
