14
Properties=species:S:1:pos:R:3 gdb_23193=T pbc="F F F"
O       -0.14040000       1.32430000      -0.02730000
N        0.03400000      -0.06330000      -0.05470000
C       -1.08060000      -0.65730000      -0.10040000
C       -2.54720000      -0.31420000       0.05610000
N       -2.88180000      -1.78340000       0.22170000
C       -2.48330000      -2.42140000      -1.02690000
C       -1.39340000      -2.11260000      -0.04700000
C       -0.65280000      -3.12290000       0.64340000
N       -0.03810000      -3.93850000       1.18530000
H        0.76610000       1.64530000       0.03980000
H       -2.75360000       0.23630000       0.97670000
H       -3.06150000       0.16280000      -0.78270000
H       -2.78320000      -3.46230000      -1.09500000
H       -2.52020000      -1.86050000      -1.95840000
