17
Properties=species:S:1:pos:R:3 gdb_90586=T pbc="F F F"
O        0.10370000       1.40860000      -0.20200000
C       -0.04860000       0.01010000      -0.05050000
C        0.20090000      -0.48430000       1.43250000
C       -1.34330000      -0.35870000       1.69530000
C       -1.49200000      -0.36190000       0.20250000
C       -2.42900000      -1.19400000      -0.25130000
C       -3.21320000      -1.76720000       0.91220000
C       -2.27260000      -1.50430000       2.12860000
O       -2.27850000      -2.10520000       3.16670000
H        1.04460000       1.60810000      -0.15340000
H        0.47180000      -0.53770000      -0.84730000
H        0.55190000      -1.51760000       1.47730000
H        0.85140000       0.15920000       2.02980000
H       -1.59940000       0.56270000       2.22720000
H       -2.53520000      -1.55220000      -1.26890000
H       -4.17480000      -1.26800000       1.09750000
H       -3.43140000      -2.83600000       0.81520000
