21
Properties=species:S:1:pos:R:3 gdb_103149=T pbc="F F F"
C       -0.30880000       1.44270000      -0.01750000
C       -0.07390000      -0.06820000      -0.11770000
C        0.81950000      -0.49050000      -1.30670000
C        2.20250000       0.15740000      -1.27410000
C        0.78800000      -2.04160000      -1.55540000
O        0.36570000      -2.78630000      -0.43790000
C       -0.22280000      -1.85410000      -2.72960000
C        0.06410000      -0.34860000      -2.64320000
O       -0.14640000       0.57970000      -3.37230000
H        0.61310000       1.98490000       0.21200000
H       -0.70840000       1.84560000      -0.95310000
H       -1.02500000       1.66200000       0.78030000
H        0.38910000      -0.44720000       0.80040000
H       -1.03770000      -0.58290000      -0.19370000
H        2.70170000      -0.03970000      -0.31880000
H        2.83960000      -0.23020000      -2.07550000
H        2.13120000       1.23970000      -1.40870000
H        1.76210000      -2.39450000      -1.92080000
H        0.33310000      -3.71500000      -0.68730000
H       -0.01770000      -2.33930000      -3.68690000
H       -1.24720000      -2.08800000      -2.41950000
