15
Properties=species:S:1:pos:R:3 gdb_16850=T pbc="F F F"
O       -0.05020000       0.18930000       0.76430000
C       -0.03490000       1.23690000       0.14820000
C       -1.33560000       1.83730000      -0.40320000
N       -1.36360000       3.26950000      -0.70190000
C       -0.94240000       4.20660000       0.31990000
C       -0.07470000       3.95050000      -0.88410000
C        1.17550000       3.19480000      -0.69500000
C        1.20540000       1.95550000      -0.18000000
H       -1.55830000       1.29690000      -1.33270000
H       -2.14490000       1.60380000       0.29420000
H       -1.52070000       5.12520000       0.37710000
H       -0.57240000       3.82820000       1.27100000
H       -0.06400000       4.69830000      -1.67380000
H        2.09670000       3.69560000      -0.98370000
H        2.13470000       1.42550000       0.00010000
