20
Properties=species:S:1:pos:R:3 gdb_111393=T pbc="F F F"
C        1.16390000       0.91580000       0.86390000
C        0.08870000       0.50750000      -0.14860000
C        0.67050000      -0.24640000      -1.33890000
C        1.14890000      -1.69300000      -1.13290000
N       -0.05430000      -2.49020000      -0.80010000
C        0.26710000      -2.19210000      -2.21840000
C       -0.29220000      -0.78850000      -2.49580000
C       -1.77840000      -0.59810000      -2.32730000
O       -2.41530000       0.24600000      -2.91030000
H        1.68490000       0.03940000       1.26490000
H        1.91580000       1.56910000       0.40670000
H        0.72560000       1.45410000       1.70940000
H       -0.66050000      -0.12300000       0.34120000
H       -0.43610000       1.39960000      -0.51240000
H        1.45920000       0.34640000      -1.81270000
H        2.13230000      -2.02880000      -0.82850000
H        0.25140000      -3.44450000      -0.61460000
H        0.42050000      -2.99080000      -2.93310000
H        0.00590000      -0.37720000      -3.46170000
H       -2.25980000      -1.29540000      -1.61080000
