15
Properties=species:S:1:pos:R:3 gdb_10717=T pbc="F F F"
N        0.18450000       1.15180000      -0.51190000
C        0.09540000      -0.04240000       0.13220000
O        0.96620000      -0.49630000       0.84820000
C       -1.21010000      -0.80030000      -0.12250000
C       -2.04600000      -0.47100000      -1.34060000
O       -2.54500000       0.86540000      -1.29730000
C       -1.34640000      -2.10700000       0.53190000
O       -1.99960000      -0.95970000       1.07720000
H        0.98270000       1.73050000      -0.30390000
H       -0.64370000       1.56260000      -0.92140000
H       -1.44660000      -0.54170000      -2.25310000
H       -2.87180000      -1.19030000      -1.41270000
H       -3.06940000       0.93860000      -0.49050000
H       -2.00470000      -2.85540000       0.09340000
H       -0.50020000      -2.47000000       1.10790000
