16
Properties=species:S:1:pos:R:3 gdb_42899=T pbc="F F F"
O       -0.14730000       0.03070000      -0.22430000
C       -0.12710000       1.21110000      -0.03380000
C       -1.16820000       2.30830000      -0.03260000
N       -0.84020000       3.16080000       1.16410000
C       -0.05530000       3.32630000      -0.06330000
C        1.02890000       2.24890000       0.01340000
C        2.16510000       2.26410000       1.04760000
O        3.17030000       2.21610000       0.01150000
C        2.16980000       2.12700000      -1.01870000
H       -2.15960000       2.32230000      -0.46640000
H       -1.55470000       3.88950000       1.18540000
H       -0.02260000       4.25620000      -0.61650000
H        2.22810000       3.17430000       1.65460000
H        2.20830000       1.38480000       1.70100000
H        2.20020000       1.16490000      -1.54450000
H        2.24190000       2.94590000      -1.74590000
