17
Properties=species:S:1:pos:R:3 gdb_52205=T pbc="F F F"
O        0.16280000       1.73200000      -1.08340000
C        0.15770000       1.63600000       0.12680000
N        1.18070000       1.12510000       0.85890000
C        2.39880000       0.62940000       0.23080000
C        3.28630000       1.74560000      -0.28600000
C        4.21230000       2.48620000       0.62760000
C        4.79040000       1.54030000      -0.41780000
C        5.39220000       0.30910000       0.01240000
N        5.86790000      -0.68510000       0.36610000
H       -0.69400000       1.95450000       0.75950000
H        1.10720000       1.12690000       1.86290000
H        2.93390000       0.01580000       0.95980000
H        2.11300000      -0.01780000      -0.60390000
H        2.83680000       2.31260000      -1.09360000
H        4.37300000       3.54660000       0.47240000
H        4.27960000       2.16380000       1.66100000
H        5.27040000       1.98620000      -1.28190000
