18
Properties=species:S:1:pos:R:3 gdb_37197=T pbc="F F F"
C        0.08660000       1.41820000       0.02400000
C        1.31840000       0.61030000       0.02770000
N       -0.11060000      -0.04170000       0.06010000
C        0.20670000      -0.55150000      -1.33050000
C       -0.13930000       0.14680000      -2.68030000
C        1.33940000       0.71620000      -2.71780000
C        1.59210000       0.01410000      -1.35090000
O        2.22160000      -1.27980000      -1.36000000
C        0.90220000      -1.92170000      -1.32910000
H       -0.19120000       1.88660000       0.96350000
H       -0.20860000       1.99280000      -0.85000000
H        1.98410000       0.55660000       0.88230000
H       -0.39880000      -0.53840000      -3.49080000
H       -0.91910000       0.90890000      -2.61890000
H        1.96260000       0.31690000      -3.51950000
H        1.41770000       1.80600000      -2.71370000
H        0.75560000      -2.51150000      -0.41860000
H        0.73990000      -2.54980000      -2.21270000
