23
Properties=species:S:1:pos:R:3 gdb_40807=T pbc="F F F"
C       -0.20770000       1.41830000      -0.16190000
C        1.23800000       1.05950000       0.08800000
C        0.19000000      -0.02270000       0.03120000
C       -0.21840000      -0.77270000       1.28890000
C       -1.66000000      -1.30370000       1.19320000
C       -1.97610000      -2.27430000       2.33690000
C       -1.04690000      -3.49650000       2.29250000
C        0.38200000      -3.10530000       2.01640000
C        0.74850000      -1.89600000       1.59270000
H       -0.75260000       1.90380000       0.64180000
H       -0.49280000       1.75130000      -1.15370000
H        1.94020000       1.14690000      -0.73380000
H        1.65840000       1.30770000       1.05750000
H        0.19510000      -0.63980000      -0.86470000
H       -0.17290000      -0.04810000       2.11930000
H       -2.36440000      -0.46490000       1.18600000
H       -1.78230000      -1.82420000       0.23330000
H       -1.84290000      -1.75540000       3.29520000
H       -3.02360000      -2.59200000       2.29520000
H       -1.10280000      -4.05200000       3.23750000
H       -1.38760000      -4.20380000       1.52090000
H        1.14090000      -3.86650000       2.18500000
H        1.80200000      -1.67610000       1.43210000
