16
Properties=species:S:1:pos:R:3 gdb_49456=T pbc="F F F"
O        0.06270000       0.03570000       0.36070000
C        0.08500000       1.22970000       0.14600000
N        1.16800000       1.92420000      -0.28990000
C        2.57080000       1.47430000      -0.17410000
C        3.17110000       2.38110000      -1.27550000
C        2.49450000       3.52570000      -1.22680000
C        1.45390000       3.36050000      -0.09210000
C        2.25580000       3.27760000       1.23880000
C        2.93100000       2.13250000       1.18860000
H       -0.81050000       1.88030000       0.22340000
H        2.69790000       0.39950000      -0.26240000
H        4.00970000       2.10820000      -1.89890000
H        2.63750000       4.43260000      -1.79590000
H        0.57920000       4.00840000      -0.11280000
H        2.27340000       4.05150000       1.99260000
H        3.64470000       1.72750000       1.89110000
