14
Properties=species:S:1:pos:R:3 gdb_3204=T pbc="F F F"
C       -0.05740000       1.62980000      -0.02970000
C        0.06180000       0.11110000      -0.04800000
C        0.75960000      -0.63110000      -1.19320000
C        2.21140000      -0.41000000      -1.19460000
N        1.66070000      -1.41000000      -0.22570000
C        1.09710000      -0.60120000       0.84840000
O        1.35390000      -0.61180000       2.01050000
H        0.89270000       2.11610000      -0.26840000
H       -0.80410000       1.97290000      -0.75240000
H       -0.36550000       1.96850000       0.96390000
H       -0.91380000      -0.34680000       0.15510000
H        0.25240000      -1.16390000      -1.98840000
H        2.80460000      -0.87920000      -1.97240000
H        2.63260000       0.51240000      -0.80300000
