18
Properties=species:S:1:pos:R:3 gdb_64800=T pbc="F F F"
C        0.07810000       1.49930000      -0.33520000
C        0.01140000       0.02240000       0.00180000
C        1.24160000      -0.84020000      -0.13240000
C        0.70850000      -0.48910000       1.23580000
N       -1.23090000      -0.62330000      -0.34390000
C       -2.38960000      -0.40970000       0.34850000
O       -2.47030000       0.26670000       1.35680000
C       -3.54290000      -1.09100000      -0.23380000
C       -4.51370000      -1.63550000      -0.68880000
H        1.04720000       1.91750000      -0.04810000
H       -0.05810000       1.66450000      -1.40980000
H       -0.70380000       2.04200000       0.20300000
H        1.11140000      -1.86070000      -0.47660000
H        2.15240000      -0.36250000      -0.47630000
H        1.25230000       0.23120000       1.83610000
H        0.21220000      -1.26670000       1.80270000
H       -1.29580000      -1.11190000      -1.22390000
H       -5.38010000      -2.11100000      -1.07970000
