17
Properties=species:S:1:pos:R:3 gdb_5739=T pbc="F F F"
C       -0.08570000       1.55430000      -0.04680000
C        0.05220000       0.06910000      -0.07600000
C       -0.10440000      -0.84690000      -1.10980000
C        0.13810000      -2.17840000      -0.63570000
C        0.43980000      -2.02370000       0.69630000
C        0.81590000      -2.42440000       2.11420000
C        0.73880000      -0.87880000       2.42590000
N        0.38540000      -0.69880000       1.00960000
H        0.84640000       2.05380000       0.24680000
H       -0.35640000       1.92020000      -1.04020000
H       -0.86410000       1.88710000       0.65160000
H       -0.37120000      -0.57920000      -2.12250000
H        0.08900000      -3.08730000      -1.21410000
H        0.08650000      -3.03100000       2.65810000
H        1.80900000      -2.86220000       2.24860000
H       -0.04790000      -0.57820000       3.12440000
H        1.68390000      -0.40870000       2.71400000
