15
Properties=species:S:1:pos:R:3 gdb_53219=T pbc="F F F"
C       -0.05920000       1.45640000      -0.16730000
C       -0.04570000       0.00550000      -0.06230000
C       -0.00140000      -1.19550000       0.02840000
C       -0.01790000      -2.63730000       0.12330000
O        0.02430000      -3.12120000       1.51470000
C       -1.27710000      -3.57280000       1.47590000
O       -1.92020000      -4.00680000       2.37300000
C       -1.43760000      -3.28790000      -0.03710000
O       -2.50220000      -2.54330000      -0.51200000
H        0.95580000       1.85180000      -0.27870000
H       -0.64420000       1.78310000      -1.03350000
H       -0.50060000       1.91040000       0.72610000
H        0.78470000      -3.10590000      -0.45040000
H       -1.40120000      -4.21660000      -0.61280000
H       -2.45140000      -1.65990000      -0.12410000
