17
Properties=species:S:1:pos:R:3 gdb_36351=T pbc="F F F"
N        0.00460000      -1.05520000      -0.76240000
C       -0.01280000       0.00970000      -0.31490000
C       -0.00630000       1.35340000       0.26410000
C        1.38120000       1.97570000       0.24960000
N        1.75690000       2.67990000      -0.98750000
C        1.57580000       3.44030000       0.23620000
C        0.60370000       4.60170000       0.42520000
O        1.58740000       5.30800000       1.21500000
C        2.58440000       4.28610000       1.01060000
H       -0.69440000       1.98690000      -0.30440000
H       -0.38490000       1.29270000       1.29140000
H        2.14500000       1.38430000       0.75170000
H        2.74100000       2.54780000      -1.20810000
H        0.34700000       5.13420000      -0.49870000
H       -0.31050000       4.39730000       0.99660000
H        2.95420000       3.86980000       1.95600000
H        3.43560000       4.65070000       0.41850000
