21
Properties=species:S:1:pos:R:3 gdb_38363=T pbc="F F F"
C       -0.18240000       1.63670000       0.23770000
C        1.34100000       1.65630000      -0.05750000
C        2.42530000       2.01860000       0.98350000
C        2.34430000       1.41880000       2.43180000
C        1.76900000       0.04850000       2.25820000
C        0.44850000      -0.14740000       2.32110000
C       -0.24560000      -0.85540000       1.19910000
C       -0.08940000       0.10860000      -0.02270000
O        1.29840000       0.24390000      -0.40620000
H       -0.50150000       1.95410000       1.22870000
H       -0.76720000       2.17170000      -0.51280000
H        1.58150000       2.24210000      -0.95520000
H        3.36920000       1.68940000       0.53030000
H        2.48450000       3.11350000       1.04140000
H        3.34640000       1.45250000       2.87510000
H        1.68420000       2.03150000       3.05580000
H        2.37300000      -0.64720000       1.67940000
H       -0.15480000       0.56860000       2.87830000
H        0.23360000      -1.80140000       0.92300000
H       -1.30720000      -1.05260000       1.38430000
H       -0.68850000      -0.25610000      -0.86620000
