21
Properties=species:S:1:pos:R:3 gdb_64424=T pbc="F F F"
C       -0.07540000       1.58490000      -0.00950000
C        0.04730000       0.06580000      -0.01370000
O       -1.28610000      -0.45120000      -0.00910000
C        0.73900000      -0.44980000      -1.28610000
O        0.80500000      -1.86690000      -1.24300000
C        1.77310000      -2.32390000      -0.30370000
C        1.62090000      -1.70770000       1.08580000
C        2.26010000      -0.37380000       1.39580000
C        0.76810000      -0.46180000       1.22240000
H        0.91010000       2.05850000       0.00820000
H       -0.61830000       1.92590000      -0.89640000
H       -0.63200000       1.91180000       0.87350000
H       -1.20010000      -1.39040000      -0.21860000
H        0.12650000      -0.18950000      -2.15360000
H        1.74150000      -0.01380000      -1.42120000
H        1.63840000      -3.40750000      -0.25190000
H        2.78150000      -2.13130000      -0.70470000
H        1.57730000      -2.42460000       1.89920000
H        2.64670000      -0.20710000       2.39530000
H        2.85050000       0.09380000       0.61320000
H        0.16310000      -0.37520000       2.11980000
