21
Properties=species:S:1:pos:R:3 gdb_79628=T pbc="F F F"
C       -0.14220000       2.16260000      -0.43290000
C       -0.00230000       0.66400000      -0.60670000
C        0.76550000      -0.07730000      -1.65300000
C        1.95990000       0.49620000      -2.38030000
N        2.41400000       1.84900000      -1.97320000
C        3.05630000       0.65800000      -1.39260000
C        2.51200000       0.23620000      -0.02320000
C        2.69120000       1.25150000       1.10440000
N        1.11210000      -0.23010000      -0.22010000
H        0.72900000       2.71650000      -0.76850000
H       -1.00910000       2.49710000      -1.01530000
H       -0.35110000       2.39660000       0.61720000
H       -0.93480000       0.16650000      -0.33080000
H        0.31170000      -0.93860000      -2.14190000
H        2.14240000       0.17350000      -3.39960000
H        3.00940000       2.23090000      -2.70430000
H        4.09660000       0.45510000      -1.63170000
H        3.06320000      -0.67290000       0.25470000
H        2.29190000       2.22930000       0.83190000
H        2.18570000       0.90510000       2.01020000
H        3.75460000       1.37170000       1.33640000
