20
Properties=species:S:1:pos:R:3 gdb_124503=T pbc="F F F"
C       -0.01880000       1.53750000      -0.00030000
C       -0.04210000      -0.00280000      -0.01670000
C       -1.48550000      -0.54110000      -0.03930000
C        0.75230000      -0.54220000      -1.16600000
C        1.85970000      -1.32600000      -1.25580000
C        2.08530000      -1.45810000      -2.65800000
C        3.16710000      -2.21160000      -3.36310000
N        1.18180000      -0.80340000      -3.34890000
O        0.33310000      -0.22020000      -2.40490000
H        1.00520000       1.91770000       0.05750000
H       -0.47820000       1.94020000      -0.90760000
H       -0.57500000       1.91590000       0.86280000
H        0.45000000      -0.36730000       0.89260000
H       -2.00290000      -0.21960000      -0.94780000
H       -1.50130000      -1.63440000      -0.01020000
H       -2.04350000      -0.16640000       0.82420000
H        2.43360000      -1.74910000      -0.44750000
H        3.13390000      -3.27590000      -3.10770000
H        3.05300000      -2.10800000      -4.44380000
H        4.15570000      -1.83720000      -3.07760000
