19
Properties=species:S:1:pos:R:3 gdb_114909=T pbc="F F F"
C       -0.09430000       1.51210000       0.10750000
C       -0.03530000       0.02380000      -0.00600000
C       -0.11380000      -0.75770000      -1.09460000
C        0.02780000      -2.22980000      -0.80150000
C        0.12020000      -2.30440000       0.73510000
C        1.31330000      -3.09460000       1.30150000
O        1.29140000      -3.13880000       2.70750000
C        0.18360000      -0.83970000       1.17730000
O        0.41820000      -0.45690000       2.31030000
H        0.81460000       1.89560000       0.58320000
H       -0.20940000       1.98960000      -0.86850000
H       -0.92860000       1.81920000       0.74770000
H       -0.24770000      -0.38890000      -2.10720000
H       -0.81150000      -2.80640000      -1.20670000
H        0.93070000      -2.63110000      -1.28270000
H       -0.79100000      -2.73950000       1.16270000
H        1.27640000      -4.12970000       0.94310000
H        2.24950000      -2.65200000       0.91610000
H        1.14880000      -2.22750000       3.00590000
