16
Properties=species:S:1:pos:R:3 gdb_7683=T pbc="F F F"
C       -0.03710000       1.55330000      -0.00050000
C        0.06130000       0.04620000      -0.07130000
O       -1.07490000      -0.60840000       0.42570000
C        0.67230000      -0.73370000      -1.17080000
C        1.88460000      -0.02360000      -1.78600000
C        2.54690000      -0.07360000      -0.37900000
O        3.65370000       0.17780000       0.00840000
C        1.35860000      -0.73720000       0.23680000
H        0.84980000       2.04950000      -0.39930000
H       -0.91430000       1.89860000      -0.55690000
H       -0.14710000       1.87510000       1.04210000
H       -1.21470000      -0.31580000       1.33330000
H        0.13850000      -1.56190000      -1.61780000
H        2.44520000      -0.66620000      -2.47140000
H        1.73210000       0.94980000      -2.25910000
H        1.34580000      -1.47890000       1.02570000
