19
Properties=species:S:1:pos:R:3 gdb_35709=T pbc="F F F"
C       -0.17980000      -1.15690000      -0.34180000
C       -0.08270000       0.02410000      -0.13790000
C        0.02900000       1.45440000       0.10380000
O       -0.13090000       1.81240000       1.49910000
C        1.22900000       2.28670000       1.59320000
C        1.46490000       2.08490000       0.07990000
C        2.63160000       1.25140000      -0.36030000
C        3.12460000       1.31970000      -1.78460000
C        3.95270000       1.91370000      -0.67410000
H       -0.27390000      -2.19960000      -0.52050000
H       -0.70300000       1.98660000      -0.51670000
H        1.27810000       3.31560000       1.96670000
H        1.84200000       1.64190000       2.23660000
H        1.45450000       3.03170000      -0.46740000
H        2.68620000       0.27530000       0.11260000
H        3.46610000       0.40280000      -2.25120000
H        2.62330000       2.00180000      -2.46370000
H        4.00900000       2.99540000      -0.60560000
H        4.86330000       1.40470000      -0.37860000
