17
Properties=species:S:1:pos:R:3 gdb_15523=T pbc="F F F"
C        0.08850000       1.51710000       0.00240000
C       -0.02850000       0.02720000       0.02630000
C       -1.14020000      -0.76190000       0.02570000
C       -0.71280000      -2.21610000       0.10920000
C        0.80880000      -2.13780000      -0.16390000
N        1.12200000      -0.72310000       0.10460000
C       -2.51420000      -0.34250000       0.02320000
O       -3.46810000      -1.10380000       0.05160000
H        0.62150000       1.87100000       0.89190000
H        0.66200000       1.84650000      -0.87270000
H       -0.88850000       1.99830000      -0.02980000
H       -0.91920000      -2.62470000       1.10600000
H       -1.23770000      -2.85290000      -0.60650000
H        1.39950000      -2.79520000       0.47920000
H        1.03720000      -2.38900000      -1.20910000
H        1.98260000      -0.33600000      -0.25350000
H       -2.67910000       0.75850000      -0.01660000
