17
Properties=species:S:1:pos:R:3 gdb_112383=T pbc="F F F"
C       -0.23460000       1.27230000       0.02330000
O        0.10830000      -0.10480000       0.00780000
C        0.76730000      -0.53210000      -1.16870000
C        1.32100000      -1.93880000      -0.91080000
C        0.36300000      -2.89160000      -1.61970000
O        0.31680000      -4.09320000      -1.56220000
N       -0.46530000      -2.09830000      -2.40840000
C       -0.24090000      -0.73000000      -2.31060000
N       -0.75650000       0.22410000      -2.97050000
H        0.66300000       1.90220000      -0.07100000
H       -0.92830000       1.53080000      -0.78340000
H       -0.70350000       1.46190000       0.99140000
H        1.53250000       0.19520000      -1.46840000
H        2.32030000      -2.07790000      -1.33370000
H        1.36890000      -2.15890000       0.15650000
H       -1.16000000      -2.51540000      -3.01140000
H       -1.44250000      -0.10600000      -3.65290000
