18
Properties=species:S:1:pos:R:3 gdb_62499=T pbc="F F F"
C       -0.11200000       1.55340000      -0.02220000
C       -0.00030000       0.04760000       0.05650000
O       -1.10930000      -0.63260000      -0.43530000
C        1.36660000      -0.64410000      -0.19910000
C        2.55320000       0.10630000      -0.45750000
N        3.50660000       0.73720000      -0.64810000
C        0.68340000      -0.64110000       1.19580000
C        1.30620000       0.12480000       2.34090000
O        0.09340000      -1.84410000       1.56880000
H        0.79420000       2.06280000       0.30770000
H       -0.29080000       1.85560000      -1.06100000
H       -0.95590000       1.89790000       0.58280000
H       -1.26540000      -0.32970000      -1.33720000
H        1.27630000      -1.59210000      -0.71790000
H        1.81890000       1.03070000       2.01510000
H        0.53870000       0.39240000       3.07310000
H        2.05170000      -0.50400000       2.84220000
H        0.75710000      -2.36700000       2.03290000
