21
Properties=species:S:1:pos:R:3 gdb_95088=T pbc="F F F"
C       -0.02280000       1.57050000       0.00930000
C        0.04670000       0.04380000       0.01530000
C        0.79430000      -0.56710000      -1.19280000
C        1.30120000      -1.94640000      -0.71700000
C        1.54710000      -1.77520000       0.77440000
C        2.27880000      -0.54370000       1.22680000
C        0.75460000      -0.55620000       1.24250000
C        0.06960000      -0.52610000       2.49950000
C       -0.52950000      -0.48180000       3.54290000
H        0.98090000       2.01020000       0.01780000
H       -0.54230000       1.93700000      -0.88230000
H       -0.55880000       1.94070000       0.88860000
H       -0.97800000      -0.35030000       0.02820000
H        0.15340000      -0.63830000      -2.07570000
H        1.63710000       0.07490000      -1.47220000
H        0.53030000      -2.71130000      -0.86770000
H        2.19250000      -2.27440000      -1.26300000
H        1.59570000      -2.65600000       1.40430000
H        2.76560000      -0.58120000       2.19390000
H        2.78440000       0.07890000       0.49590000
H       -1.05080000      -0.44900000       4.46690000
