19
Properties=species:S:1:pos:R:3 gdb_90080=T pbc="F F F"
C       -0.15050000       1.54180000      -0.18840000
C        0.07040000       0.04710000      -0.09750000
O        1.07520000      -0.47520000      -1.06130000
C        1.99860000      -0.65710000       0.01860000
C        2.97960000      -1.66660000       0.67800000
C        2.97680000      -0.45860000       1.71720000
C        2.95400000       0.47700000       0.50210000
O        1.61370000      -0.29350000       2.23100000
C        0.90510000      -0.65740000       1.04200000
H       -0.54960000       1.79430000      -1.17580000
H       -0.88520000       1.84840000       0.56370000
H        0.76110000       2.11900000      -0.03400000
H       -0.87630000      -0.47650000      -0.26450000
H        2.58010000      -2.63330000       0.98900000
H        3.96610000      -1.76930000       0.22220000
H        3.69380000      -0.39570000       2.53150000
H        3.88520000       0.50020000      -0.06710000
H        2.56870000       1.47980000       0.67780000
H        0.44730000      -1.63990000       1.19770000
