20
Properties=species:S:1:pos:R:3 gdb_76664=T pbc="F F F"
C       -0.09460000       1.41020000      -0.24180000
C        0.25120000      -0.06080000      -0.15270000
C        1.67310000      -0.51850000       0.09460000
O        2.66280000       0.43330000       0.40030000
C        0.63050000      -0.74070000       1.15620000
C        0.67740000       0.00060000       2.48300000
C        1.62060000      -0.68020000       3.48220000
N        2.94550000      -0.49260000       3.21500000
O        1.21730000      -1.32270000       4.43300000
H        0.60430000       2.02840000       0.32580000
H       -0.06490000       1.74940000      -1.28340000
H       -1.10290000       1.60510000       0.13790000
H       -0.31390000      -0.68730000      -0.83860000
H        2.04780000      -1.38350000      -0.45080000
H        2.93680000       0.87160000      -0.41170000
H        0.29530000      -1.76950000       1.25730000
H        0.99450000       1.03550000       2.33530000
H       -0.31420000       0.00600000       2.94100000
H        3.24150000      -0.08840000       2.33860000
H        3.60840000      -1.01110000       3.76800000
