18
Properties=species:S:1:pos:R:3 gdb_14375=T pbc="F F F"
C        0.04200000       1.48900000      -0.25020000
O        1.46290000       1.52870000       0.12990000
C        1.22650000       0.36090000       0.92940000
C        1.83860000      -1.00800000       1.29320000
C        0.49350000      -1.04970000       2.14690000
C        0.73490000       0.46200000       2.39490000
C       -0.70260000      -0.96050000       1.13470000
C       -0.00010000      -0.01850000       0.12450000
H       -0.55110000       2.15860000       0.38360000
H       -0.09510000       1.74780000      -1.30290000
H        1.97990000      -1.73000000       0.48510000
H        2.70620000      -0.98780000       1.95650000
H        0.40920000      -1.75300000       2.97410000
H        1.55170000       0.66470000       3.09060000
H       -0.13070000       1.08840000       2.62530000
H       -0.97840000      -1.91670000       0.68250000
H       -1.58980000      -0.55210000       1.62710000
H        0.29860000      -0.57390000      -0.76900000
