18
Properties=species:S:1:pos:R:3 gdb_89870=T pbc="F F F"
O        0.64990000       0.58190000      -1.01870000
C        0.00190000      -0.26730000      -0.11040000
C        0.21020000      -0.06460000       1.42080000
C       -1.28720000      -0.32190000       1.59760000
C       -1.54080000      -0.13570000       0.09650000
N       -1.78970000      -1.40710000       2.42860000
C       -2.18130000      -0.00300000       2.74630000
C       -1.67550000       0.57390000       3.95970000
C       -1.24960000       1.09620000       4.95570000
H        0.48760000       1.49200000      -0.74770000
H        0.26910000      -1.28280000      -0.41390000
H        0.89200000      -0.74090000       1.93860000
H        0.47860000       0.97040000       1.66220000
H       -1.89410000       0.87280000      -0.14680000
H       -2.18330000      -0.86450000      -0.40610000
H       -2.57530000      -1.86820000       1.97270000
H       -3.19700000       0.29260000       2.48930000
H       -0.87410000       1.54190000       5.84320000
