18
Properties=species:S:1:pos:R:3 gdb_19176=T pbc="F F F"
C       -0.37940000       1.54370000      -0.06930000
C       -0.04330000       0.05870000      -0.00900000
C        1.14740000      -0.60440000      -0.79140000
C        2.12300000      -0.09690000       0.29780000
O        2.49310000       1.25780000       0.25190000
C        0.86770000      -0.58800000       1.09350000
C        0.96850000      -1.83960000       0.15880000
O       -0.07850000      -2.75030000       0.01200000
H        0.49440000       2.17980000       0.04530000
H       -0.85610000       1.77730000      -1.02860000
H       -1.10280000       1.79190000       0.71650000
H       -0.98990000      -0.48180000      -0.14510000
H        1.31730000      -0.61490000      -1.86920000
H        3.01500000      -0.72490000       0.43640000
H        2.97270000       1.45950000       1.06150000
H        0.71790000      -0.58030000       2.17530000
H        1.86490000      -2.44970000       0.29470000
H       -0.90670000      -2.27490000      -0.10790000
