22
Properties=species:S:1:pos:R:3 gdb_58358=T pbc="F F F"
C       -0.15870000       1.42180000      -0.08860000
C        0.08450000      -0.09480000      -0.07430000
C        0.83570000      -0.57760000      -1.32420000
N        0.73770000      -0.53900000       1.16990000
C        1.99260000      -0.11020000       1.49010000
O        2.61670000      -0.41740000       2.48790000
C        0.08420000      -1.43840000       2.09040000
C       -1.39050000      -1.38780000       2.38340000
C       -0.79770000      -2.57330000       1.64620000
H        0.78150000       1.98010000      -0.12780000
H       -0.74800000       1.70200000      -0.96740000
H       -0.70190000       1.73580000       0.80700000
H       -0.89590000      -0.57730000      -0.08220000
H        1.81720000      -0.10190000      -1.41250000
H        0.98580000      -1.66020000      -1.29230000
H        0.26580000      -0.33310000      -2.22620000
H        2.40800000       0.57160000       0.72630000
H        0.74660000      -1.62590000       2.92480000
H       -1.70660000      -1.51150000       3.41320000
H       -2.01330000      -0.70820000       1.81150000
H       -1.03240000      -2.67040000       0.59160000
H       -0.70150000      -3.52150000       2.16350000
