19
Properties=species:S:1:pos:R:3 gdb_94653=T pbc="F F F"
C       -0.20290000       1.41780000      -0.35340000
C        0.03440000      -0.03830000       0.02600000
C        1.42540000      -0.64970000      -0.25570000
O        1.57510000      -1.06740000       1.11970000
C        0.33450000      -0.43130000       1.50060000
C        0.57420000       0.67460000       2.51430000
O        0.96620000       0.11140000       3.76980000
C        2.28730000      -0.09040000       3.97550000
O        2.70470000      -0.60790000       4.96640000
H        0.59670000       2.07440000       0.00430000
H       -0.24710000       1.52220000      -1.44250000
H       -1.15150000       1.78880000       0.04850000
H       -0.76960000      -0.65670000      -0.38060000
H        1.45810000      -1.50040000      -0.94510000
H        2.19620000       0.07560000      -0.54950000
H       -0.35960000      -1.15970000       1.93760000
H        1.34140000       1.37140000       2.15710000
H       -0.34460000       1.23580000       2.70700000
H        2.91320000       0.28270000       3.14560000
