15
Properties=species:S:1:pos:R:3 gdb_127930=T pbc="F F F"
C       -0.06590000       1.39650000      -0.02280000
N       -0.02630000      -0.05460000      -0.04520000
C        0.54950000      -0.62680000       0.93030000
N        1.18430000      -0.13940000       2.07670000
N        1.68380000      -1.10560000       2.89210000
C        1.38300000      -2.22420000       2.29250000
N        0.70300000      -1.99870000       1.11270000
C        1.71350000      -3.57110000       2.78700000
O        2.30510000      -3.80250000       3.81070000
H        0.93840000       1.85250000      -0.02490000
H       -0.58420000       1.75630000      -0.91490000
H       -0.60740000       1.79670000       0.85070000
H        1.29490000       0.82550000       2.33210000
H        0.35560000      -2.67800000       0.45840000
H        1.36030000      -4.38540000       2.11500000
