15
Properties=species:S:1:pos:R:3 gdb_27573=T pbc="F F F"
C       -0.02490000       1.49090000       0.00400000
C        0.01390000      -0.01180000      -0.00350000
N       -0.02580000      -0.62230000      -1.19050000
C        0.00940000      -1.96650000      -1.18690000
C        0.08420000      -2.69270000       0.00410000
C        0.11990000      -1.95130000       1.17740000
N        0.08580000      -0.62030000       1.19210000
C       -0.03220000      -2.63670000      -2.44890000
C       -0.06580000      -3.22890000      -3.49550000
H        0.86810000       1.88800000       0.49680000
H       -0.08300000       1.87520000      -1.01410000
H       -0.88710000       1.84220000       0.57960000
H        0.11250000      -3.77460000       0.00430000
H        0.17820000      -2.44640000       2.14450000
H       -0.09610000      -3.73800000      -4.42750000
