9
Properties=species:S:1:pos:R:3 gdb_830=T pbc="F F F"
O       -0.05240000       1.43600000       0.00990000
C        0.02470000       0.03170000       0.00170000
C       -1.39660000      -0.50760000       0.01260000
F       -2.08800000      -0.10770000      -1.05860000
F       -1.36170000      -1.85070000       0.00480000
F       -2.06680000      -0.11980000       1.10160000
H        0.84160000       1.78920000       0.00550000
H        0.51560000      -0.36730000      -0.89730000
H        0.53280000      -0.37670000       0.88670000
