19
Properties=species:S:1:pos:R:3 gdb_14392=T pbc="F F F"
C       -0.09740000       1.61060000       0.00100000
C        0.08320000       0.08870000       0.03230000
C       -1.12000000      -0.63480000      -0.57320000
C        1.35910000      -0.68690000      -0.23330000
C        2.65100000      -0.14810000       0.44120000
N        2.35810000       1.11730000       1.16490000
C        2.01200000      -0.19660000       1.76880000
C        0.69440000      -0.73740000       1.14770000
H        0.68470000       2.10260000      -0.57770000
H       -1.06400000       1.85350000      -0.45550000
H       -0.07530000       2.04490000       1.00080000
H       -1.26670000      -0.32820000      -1.61490000
H       -0.99920000      -1.72260000      -0.55480000
H       -2.03360000      -0.38630000      -0.02170000
H        1.39680000      -1.47360000      -0.97810000
H        3.65960000      -0.39780000       0.13770000
H        3.23430000       1.41180000       1.59740000
H        2.41170000      -0.49250000       2.73020000
H        0.15880000      -1.56750000       1.59380000
