20
Properties=species:S:1:pos:R:3 gdb_61835=T pbc="F F F"
C        0.27210000       1.47740000       0.15780000
C       -0.09510000       0.00260000       0.05020000
O       -1.53540000      -0.12260000       0.05950000
C       -2.12370000      -0.70640000       1.11600000
O       -3.30690000      -0.84580000       1.20620000
C        0.40020000      -0.61980000      -1.23560000
N        1.82130000      -0.99590000      -1.25830000
C        0.79550000      -2.04710000      -1.38310000
C        0.72370000      -3.08550000      -0.28930000
H        1.35910000       1.58690000       0.11440000
H       -0.17310000       2.04410000      -0.66550000
H       -0.08700000       1.90160000       1.09960000
H        0.31870000      -0.54420000       0.90480000
H       -1.39690000      -1.03930000       1.88360000
H       -0.01510000      -0.14190000      -2.12220000
H        2.23800000      -0.77780000      -2.15850000
H        0.63740000      -2.45150000      -2.38250000
H        0.95640000      -2.65750000       0.68850000
H       -0.27190000      -3.53960000      -0.24710000
H        1.44980000      -3.88350000      -0.47660000
