15
Properties=species:S:1:pos:R:3 gdb_105577=T pbc="F F F"
C       -0.05320000       1.44980000      -0.00020000
O        0.08530000       0.03010000       0.03710000
C        0.70610000      -0.52890000      -1.09040000
C        0.49860000      -2.06100000      -1.13000000
O       -0.32960000      -1.93910000      -2.33040000
C       -0.21400000      -0.57880000      -2.35840000
O       -0.72040000       0.19220000      -3.10480000
C        2.06020000      -0.05260000      -1.33510000
C        3.17640000       0.33730000      -1.55030000
H        0.92590000       1.94230000      -0.02900000
H       -0.64430000       1.76880000      -0.86580000
H       -0.57190000       1.72400000       0.91970000
H        1.38470000      -2.66430000      -1.32470000
H       -0.08180000      -2.43730000      -0.28730000
H        4.16210000       0.68450000      -1.74330000
