19
Properties=species:S:1:pos:R:3 gdb_34087=T pbc="F F F"
C        0.04390000      -1.17740000       0.02500000
C        0.01770000       0.02520000      -0.00030000
C       -0.00690000       1.46820000      -0.02780000
C       -0.98090000       2.17860000       0.98990000
C       -1.47900000       3.05780000      -0.15490000
C       -0.31230000       3.59770000      -0.96730000
C        1.07510000       3.63720000      -0.32640000
C        1.37870000       2.15310000       0.00560000
C       -0.78170000       2.18880000      -1.18490000
H        0.06540000      -2.23850000       0.04650000
H       -1.75300000       1.48850000       1.33470000
H       -0.51260000       2.65970000       1.85630000
H       -2.45850000       3.51730000      -0.21390000
H       -0.57580000       4.34390000      -1.70900000
H        1.81600000       4.05050000      -1.01690000
H        1.08950000       4.26740000       0.56940000
H        1.86980000       2.01830000       0.97380000
H        2.02130000       1.70580000      -0.75940000
H       -1.13100000       1.74710000      -2.10790000
