11
Properties=species:S:1:pos:R:3 gdb_42170=T pbc="F F F"
O        0.14570000      -0.01220000      -0.50650000
C        0.01530000       1.11650000      -0.13530000
C        1.16420000       1.94290000       0.26380000
N        2.07010000       2.60320000       0.54630000
C       -1.35280000       1.85920000      -0.07470000
C       -2.45330000       1.02190000      -0.52880000
C       -3.35840000       0.33660000      -0.91300000
C       -1.56600000       2.38170000       1.28390000
N       -1.71760000       2.78530000       2.35490000
H       -1.24100000       2.73030000      -0.74000000
H       -4.16120000      -0.27350000      -1.24980000
