19
Properties=species:S:1:pos:R:3 gdb_99619=T pbc="F F F"
C        0.14320000       1.42280000      -0.04720000
O       -0.21840000       0.07850000      -0.31280000
C        0.63220000      -0.59000000      -1.21790000
C        2.01010000      -0.71060000      -0.68030000
N        3.09450000      -0.75250000      -0.28380000
C        0.02620000      -1.95350000      -1.49410000
N       -0.08440000      -2.73250000      -0.28830000
C       -0.98340000      -2.03400000      -2.62300000
C        0.39780000      -2.63760000      -2.77510000
H        1.12980000       1.49180000       0.42890000
H        0.15140000       2.02300000      -0.96930000
H       -0.61280000       1.82180000       0.63160000
H        0.70530000      -0.02550000      -2.16190000
H       -0.78470000      -2.32490000       0.32340000
H       -0.36270000      -3.68540000      -0.49220000
H       -1.81970000      -2.71000000      -2.48250000
H       -1.22080000      -1.14030000      -3.19060000
H        1.10550000      -2.15350000      -3.43970000
H        0.49570000      -3.71790000      -2.74760000
