17
Properties=species:S:1:pos:R:3 gdb_67512=T pbc="F F F"
O       -0.10190000       1.27070000      -0.20370000
C       -0.05980000      -0.10370000      -0.15280000
C        0.38570000      -0.93810000      -1.38570000
C        0.65950000      -2.38020000      -1.09180000
C       -0.76770000      -1.89630000      -1.11540000
C       -1.21790000      -1.03410000       0.10350000
C       -0.17640000      -0.84470000       1.18390000
C        0.69600000      -1.86130000       1.85880000
O        1.62880000      -1.56300000       2.56450000
H        0.78280000       1.60940000      -0.01960000
H        0.65390000      -0.45200000      -2.31470000
H        0.93370000      -2.96700000      -1.96480000
H        1.17350000      -2.70180000      -0.19340000
H       -1.48440000      -2.28340000      -1.82720000
H       -2.25790000      -0.78350000       0.26860000
H       -0.50120000      -0.10040000       1.91100000
H        0.39770000      -2.92400000       1.72360000
