12
Properties=species:S:1:pos:R:3 gdb_130504=T pbc="F F F"
O       -0.03350000       1.29290000       0.00920000
N        1.28140000       1.80540000      -0.00050000
C        2.10380000       0.79400000      -0.01380000
C        1.39270000      -0.44780000      -0.01360000
C        0.04980000      -0.04670000       0.00130000
N       -0.99070000      -0.86000000       0.00690000
C       -0.62500000      -2.14450000      -0.00330000
C        0.71800000      -2.57290000      -0.01840000
N        1.75230000      -1.73350000      -0.02380000
H        3.16870000       0.97780000      -0.02300000
H       -1.42590000      -2.87830000       0.00040000
H        0.94390000      -3.63500000      -0.02620000
