11
Properties=species:S:1:pos:R:3 gdb_23979=T pbc="F F F"
C        0.11340000      -1.15860000      -0.00530000
C        0.01000000       0.03880000       0.00300000
C       -0.10350000       1.44260000       0.01260000
N       -1.18020000       2.16960000       0.03110000
C       -0.71280000       3.47580000       0.03230000
C        0.65130000       3.46290000       0.01380000
O        1.05550000       2.17700000       0.00100000
C       -1.56860000       4.60840000       0.05030000
N       -2.24530000       5.54640000       0.06470000
H        0.19570000      -2.21820000      -0.01250000
H        1.41070000       4.22550000       0.00790000
