18
Properties=species:S:1:pos:R:3 gdb_5325=T pbc="F F F"
C       -0.22550000       1.39680000       0.04450000
N        0.30380000       0.04370000       0.00590000
C        0.02950000      -0.72810000       1.20000000
C        0.13610000      -0.65060000      -1.20300000
C       -0.13490000      -1.99970000      -1.35370000
N       -0.14940000      -2.27480000      -2.70620000
C        0.08740000      -1.13240000      -3.41440000
C        0.26910000      -0.10470000      -2.51910000
H        0.16680000       1.98210000      -0.78980000
H       -1.32860000       1.43560000      -0.00040000
H        0.09670000       1.88240000       0.97090000
H       -1.02580000      -1.04920000       1.28200000
H        0.65720000      -1.62480000       1.21320000
H        0.27350000      -0.13100000       2.08330000
H       -0.31300000      -2.77500000      -0.62920000
H       -0.31930000      -3.18020000      -3.10420000
H        0.11170000      -1.13680000      -4.49230000
H        0.48550000       0.91910000      -2.77850000
