19
Properties=species:S:1:pos:R:3 gdb_80536=T pbc="F F F"
C       -0.08960000       1.50210000       0.03280000
C        0.07250000      -0.01610000       0.06860000
C        1.01130000      -0.59670000      -1.06250000
C        2.06530000      -1.32200000      -0.20020000
C        1.15540000      -2.00880000       0.87670000
O        1.84440000      -2.68160000       1.90110000
C        0.82010000      -0.55270000       1.31430000
C        2.28390000      -0.26730000       0.90870000
O        3.18840000       0.39900000       1.30880000
H        0.87920000       2.00760000       0.10830000
H       -0.56220000       1.81940000      -0.90280000
H       -0.71480000       1.85420000       0.85990000
H       -0.91600000      -0.48340000       0.00950000
H        0.48250000      -1.28480000      -1.72800000
H        1.45280000       0.19330000      -1.67660000
H        2.88510000      -1.84210000      -0.69430000
H        0.31360000      -2.59270000       0.48090000
H        2.30220000      -3.43640000       1.51730000
H        0.42220000      -0.32900000       2.30190000
