18
Properties=species:S:1:pos:R:3 gdb_56917=T pbc="F F F"
C        0.03700000       1.53070000      -0.19820000
C       -0.06430000       0.04320000       0.05810000
C       -1.20750000      -0.64970000      -0.65290000
O        1.18170000      -0.68840000       0.03060000
C        0.48680000      -0.59230000       1.26870000
C        1.16880000       0.17750000       2.39270000
O        0.23660000       0.64390000       3.35150000
C        2.21180000      -0.65920000       3.02250000
N        2.99040000      -1.33810000       3.54010000
H        0.94150000       1.96520000       0.22980000
H        0.05810000       1.71950000      -1.27640000
H       -0.83130000       2.05140000       0.21780000
H       -1.11750000      -0.51390000      -1.73570000
H       -1.20870000      -1.72170000      -0.44200000
H       -2.16900000      -0.22880000      -0.34040000
H        0.02900000      -1.52550000       1.60780000
H        1.65500000       1.06620000       1.98450000
H       -0.12670000      -0.11600000       3.82110000
