18
Properties=species:S:1:pos:R:3 gdb_34418=T pbc="F F F"
N       -0.03550000      -1.12480000       0.08690000
C       -0.04520000       0.03170000       0.07310000
C       -0.05250000       1.48200000       0.05690000
C       -0.21780000       2.17580000      -1.32070000
O        0.93190000       3.00560000      -1.08320000
C        1.32540000       2.22720000       0.07180000
C        1.42080000       3.02630000       1.37930000
C        0.26090000       2.49560000       2.25040000
C       -0.83500000       2.11100000       1.23980000
H       -0.07200000       1.50350000      -2.17420000
H       -1.13600000       2.75660000      -1.45930000
H        2.20380000       1.61170000      -0.14730000
H        2.39350000       2.91910000       1.86510000
H        1.27980000       4.08390000       1.13620000
H        0.58400000       1.60350000       2.79900000
H       -0.08540000       3.22220000       2.98970000
H       -1.35030000       3.00910000       0.88390000
H       -1.58720000       1.43540000       1.65140000
