16
Properties=species:S:1:pos:R:3 gdb_48335=T pbc="F F F"
O       -0.34540000       0.15760000      -0.55910000
C       -0.12360000       1.18170000       0.02980000
C        1.21310000       1.89950000       0.01210000
C        1.47010000       2.66800000       1.31740000
C        1.60750000       1.78130000       2.47310000
N        1.71210000       1.05970000       3.36930000
C        2.40410000       1.09230000      -0.54910000
O        2.60610000       2.03820000      -1.62260000
C        1.42940000       2.77190000      -1.26770000
H       -0.92370000       1.69820000       0.60850000
H        2.38380000       3.26390000       1.22080000
H        0.65060000       3.37190000       1.51030000
H        3.27870000       1.01390000       0.10530000
H        2.11790000       0.10300000      -0.91810000
H        0.63710000       2.68170000      -2.02100000
H        1.63200000       3.83390000      -1.07980000
