20
Properties=species:S:1:pos:R:3 gdb_59378=T pbc="F F F"
C        0.35290000       1.38080000      -0.32090000
C        0.00840000      -0.08820000      -0.07410000
O        0.90400000      -0.67930000       0.86330000
C       -1.44660000      -0.28390000       0.36500000
C       -2.49830000      -0.14850000      -0.77560000
C       -2.58430000      -1.70770000      -0.84670000
C       -1.85330000      -1.77380000       0.53370000
C       -3.90220000      -2.30870000      -0.95110000
N       -4.95920000      -2.77380000      -1.01600000
H        1.39720000       1.47760000      -0.62890000
H       -0.27980000       1.82070000      -1.09800000
H        0.20960000       1.96780000       0.59520000
H        0.17920000      -0.65510000      -0.99950000
H        0.85250000      -0.17010000       1.68030000
H       -1.63850000       0.34660000       1.24050000
H       -3.43610000       0.29350000      -0.43490000
H       -2.18630000       0.35390000      -1.69410000
H       -1.95470000      -2.10340000      -1.64790000
H       -1.03610000      -2.49090000       0.61840000
H       -2.55650000      -1.93140000       1.35330000
