10
Properties=species:S:1:pos:R:3 gdb_8974=T pbc="F F F"
O       -0.46610000       0.48920000       0.84750000
C        0.00040000       1.14870000      -0.04930000
C        1.22830000       1.90300000       0.06260000
C        2.25320000       2.54260000       0.12910000
C        3.46590000       3.33160000       0.22460000
O        3.44580000       4.51030000       0.51130000
C        4.68000000       2.59680000      -0.05020000
C        5.69020000       1.98400000      -0.27860000
H       -0.48500000       1.22570000      -1.04210000
H        6.58780000       1.44960000      -0.47810000
