23
Properties=species:S:1:pos:R:3 gdb_109883=T pbc="F F F"
C       -0.38850000       1.68360000      -0.37020000
C       -0.14000000       0.18280000      -0.25570000
C        1.02330000      -0.51820000      -1.05670000
C        2.05810000       0.34700000      -1.76790000
O        1.55730000       0.91810000      -2.97050000
C        1.46250000      -1.25930000       0.24980000
C        2.61650000      -0.63370000       1.07350000
C        1.60490000       0.34360000       1.74270000
C        0.42140000      -0.41020000       1.06330000
H        0.52280000       2.27670000      -0.24280000
H       -0.82660000       1.94270000      -1.34220000
H       -1.09900000       2.01640000       0.39480000
H       -1.07770000      -0.33250000      -0.49030000
H        0.63010000      -1.21040000      -1.80680000
H        2.45820000       1.12740000      -1.10360000
H        2.90770000      -0.27690000      -2.06880000
H        0.86780000       1.54390000      -2.73010000
H        1.42910000      -2.34830000       0.19280000
H        3.02710000      -1.34990000       1.79040000
H        3.45530000      -0.19480000       0.52690000
H        1.59440000       0.30830000       2.83460000
H        1.71150000       1.39130000       1.44950000
H       -0.30360000      -0.85440000       1.74780000
