19
Properties=species:S:1:pos:R:3 gdb_84080=T pbc="F F F"
C       -0.07740000       1.54440000       0.01210000
C        0.05020000       0.01960000      -0.02090000
N        0.83840000      -0.45870000      -1.16200000
C        1.79980000      -1.15500000      -0.68170000
C        2.84890000      -1.83070000      -1.50100000
N        1.82050000      -1.25780000       0.71790000
C        2.77710000      -1.95100000       1.55340000
C        0.74780000      -0.53300000       1.22640000
O        0.47690000      -0.39370000       2.39700000
H        0.91080000       2.01360000       0.03020000
H       -0.60760000       1.89660000      -0.87560000
H       -0.62440000       1.85070000       0.90760000
H       -0.95430000      -0.42090000      -0.07370000
H        2.66080000      -1.62300000      -2.55420000
H        3.84960000      -1.47200000      -1.23610000
H        2.83840000      -2.91440000      -1.34080000
H        3.78940000      -1.55410000       1.42350000
H        2.46270000      -1.79280000       2.58730000
H        2.78990000      -3.02560000       1.34410000
