18
Properties=species:S:1:pos:R:3 gdb_83660=T pbc="F F F"
O        0.48210000       1.03630000      -0.57320000
C        0.13570000      -0.21670000      -0.06170000
C        0.24020000      -0.37920000       1.47860000
O       -0.11260000       0.86600000       2.12620000
C       -1.45770000       0.38550000       2.40760000
C       -1.23600000      -0.87510000       1.55800000
C       -1.36070000      -0.60250000       0.05240000
C       -2.48080000      -0.01960000      -0.71510000
N       -2.10790000      -1.44040000      -0.87710000
H        0.25000000       1.66720000       0.12470000
H        0.71030000      -0.97540000      -0.60700000
H        1.11670000      -0.85390000       1.92400000
H       -1.58100000       0.19650000       3.48050000
H       -2.22770000       1.08670000       2.06750000
H       -1.55900000      -1.84400000       1.93240000
H       -3.44570000       0.14480000      -0.24210000
H       -2.22620000       0.68550000      -1.50220000
H       -1.57390000      -1.56410000      -1.73570000
