17
Properties=species:S:1:pos:R:3 gdb_77234=T pbc="F F F"
C       -0.50510000       1.10180000      -0.06560000
C        0.00850000      -0.30200000       0.21540000
C        1.32350000      -0.74540000      -0.46490000
O        1.92910000      -1.10520000       0.79280000
C        0.80750000      -0.60340000       1.53140000
C        1.13260000       0.60940000       2.37760000
O        2.16050000       1.22950000       2.32120000
C        1.25850000      -1.92770000      -1.40790000
O        0.37740000      -2.09090000      -2.21170000
H        0.26920000       1.85760000       0.09810000
H       -0.83330000       1.17280000      -1.10720000
H       -1.36270000       1.34780000       0.56880000
H       -0.78400000      -1.03530000       0.05240000
H        1.87320000       0.07200000      -0.95780000
H        0.36000000      -1.37200000       2.17740000
H        0.30590000       0.90200000       3.06740000
H        2.10040000      -2.64540000      -1.28880000
