14
Properties=species:S:1:pos:R:3 gdb_16199=T pbc="F F F"
O        0.10870000       0.01360000      -0.05160000
C        0.04910000       1.22390000       0.01290000
N       -1.08170000       2.01140000       0.07130000
C       -0.74400000       3.37820000       0.02850000
C        0.58370000       3.55000000      -0.02090000
C        1.20150000       2.20520000       0.01210000
C        2.44760000       1.78470000       0.73060000
N        2.42470000       1.82860000      -0.72450000
H       -2.01380000       1.63690000       0.01660000
H       -1.53190000       4.11670000       0.04880000
H        1.11630000       4.48690000      -0.04970000
H        3.05180000       2.55020000       1.20880000
H        2.41520000       0.81900000       1.22830000
H        2.27640000       0.88270000      -1.07990000
