20
Properties=species:S:1:pos:R:3 gdb_105538=T pbc="F F F"
C        0.27560000       1.28600000      -0.16750000
O        0.00840000      -0.10160000      -0.14310000
C       -1.32620000      -0.53320000      -0.05040000
C       -2.20660000      -0.03200000       1.13080000
O       -3.26610000       0.32600000       0.22130000
C       -2.43220000       0.11230000      -0.93360000
C       -1.30950000      -2.04410000      -0.16590000
C       -0.34950000      -2.73600000      -1.05700000
N       -0.21190000      -2.82710000       0.41150000
H        1.36310000       1.38730000      -0.15190000
H       -0.10660000       1.76610000      -1.07730000
H       -0.13630000       1.80980000       0.70420000
H       -2.51710000      -0.78940000       1.85850000
H       -1.81100000       0.83920000       1.66790000
H       -2.15170000       1.05450000      -1.42070000
H       -2.90240000      -0.54510000      -1.67330000
H       -2.29480000      -2.48250000      -0.01900000
H       -0.63910000      -3.65990000      -1.54930000
H        0.36510000      -2.12330000      -1.59680000
H        0.51840000      -2.17760000       0.69720000
