18
Properties=species:S:1:pos:R:3 gdb_90811=T pbc="F F F"
O        0.40050000       1.13050000      -0.70070000
C        0.06310000      -0.07050000      -0.01610000
C        0.83660000      -0.24260000       1.29850000
C       -0.01620000      -0.91520000       2.35440000
C       -1.38290000      -0.40030000       2.72880000
C       -1.23850000      -1.74600000       2.06110000
N       -2.07110000      -1.32810000       0.86080000
C       -2.15700000       0.04610000       1.47480000
C       -1.43400000      -0.16750000       0.19490000
H        0.14430000       1.86710000      -0.13400000
H        0.33990000      -0.86590000      -0.71750000
H        1.75880000      -0.80530000       1.12510000
H        1.14080000       0.74830000       1.66060000
H        0.52910000      -1.29030000       3.21740000
H       -1.68050000      -0.15410000       3.73900000
H       -1.39070000      -2.75010000       2.43570000
H       -3.11060000       0.56250000       1.52710000
H       -1.99310000       0.10650000      -0.69800000
