12
Properties=species:S:1:pos:R:3 gdb_24892=T pbc="F F F"
O       -0.07830000      -0.04300000       0.00360000
C        0.01520000       1.15810000       0.00900000
N       -1.16590000       1.95600000       0.02960000
C       -1.13700000       3.30950000       0.03660000
N       -0.01170000       3.97800000       0.02490000
C        1.10680000       3.18810000       0.00530000
N        1.19240000       1.89010000      -0.00300000
C       -2.39160000       3.99070000       0.05750000
C       -3.46380000       4.53330000       0.07510000
H       -2.04580000       1.45660000       0.03880000
H        2.04450000       3.74140000      -0.00450000
H       -4.40360000       5.03060000       0.09060000
