20
Properties=species:S:1:pos:R:3 gdb_102486=T pbc="F F F"
C        0.11210000       1.21120000      -0.18690000
O       -0.01730000      -0.14920000       0.16370000
C       -1.32450000      -0.67530000       0.02290000
C       -1.84250000      -0.71480000      -1.42560000
O       -0.97770000      -1.36970000      -2.31620000
C       -1.24490000      -2.06530000       0.63810000
N       -1.14050000      -3.10280000      -0.08740000
O       -1.27990000      -1.98610000       1.98500000
C       -1.11870000      -3.18970000       2.72460000
H        1.10890000       1.52420000       0.13330000
H        0.02620000       1.37280000      -1.26930000
H       -0.63620000       1.83620000       0.32570000
H       -2.03560000      -0.08310000       0.62540000
H       -2.84940000      -1.16550000      -1.40030000
H       -1.96450000       0.31100000      -1.78990000
H       -0.84220000      -2.25010000      -1.93150000
H       -1.07280000      -3.97190000       0.43760000
H       -1.14580000      -2.90340000       3.77610000
H       -1.93240000      -3.89590000       2.51980000
H       -0.15740000      -3.66650000       2.50020000
