19
Properties=species:S:1:pos:R:3 gdb_79400=T pbc="F F F"
C       -0.18030000       1.59040000      -0.03070000
C       -0.04520000       0.07550000       0.00570000
C        1.18380000      -0.60580000      -0.64970000
C        2.13830000      -0.30540000       0.55730000
C        2.58830000      -1.77880000       0.67730000
C        1.09500000      -1.84560000       0.29100000
O        0.29730000      -2.94090000       0.02310000
C        0.71720000      -0.60640000       1.16710000
O        0.37350000      -0.72770000       2.50250000
H        0.76580000       2.09140000       0.20120000
H       -0.50180000       1.93370000      -1.02000000
H       -0.92970000       1.93720000       0.69060000
H       -0.99500000      -0.41420000      -0.23710000
H        1.48170000      -0.62530000      -1.69610000
H        2.73260000       0.59450000       0.69450000
H        3.30490000      -2.13610000      -0.06830000
H        2.85640000      -2.12640000       1.67940000
H        0.10120000      -3.37910000       0.85890000
H        0.33740000       0.15120000       2.89500000
