17
Properties=species:S:1:pos:R:3 gdb_93445=T pbc="F F F"
C       -0.09230000       1.53490000       0.04750000
C        0.02220000       0.00060000       0.00220000
C        0.81700000      -0.49290000      -1.20240000
O        2.20090000      -0.10620000      -1.11640000
C        2.86220000      -0.35870000       0.03040000
O        4.06020000      -0.31020000       0.09790000
N        2.06650000      -0.67190000       1.13140000
C        0.68220000      -0.53020000       1.25640000
N        0.00410000      -0.78290000       2.30120000
H        0.89280000       2.00990000       0.06490000
H       -0.62640000       1.90010000      -0.83510000
H       -0.64210000       1.84400000       0.93890000
H       -0.98080000      -0.43270000      -0.03490000
H        0.76200000      -1.58480000      -1.29040000
H        0.45660000      -0.05010000      -2.13280000
H        2.60630000      -0.89610000       1.95580000
H        0.59180000      -1.10320000       3.07410000
