20
Properties=species:S:1:pos:R:3 gdb_18080=T pbc="F F F"
C       -0.00000000       1.52750000      -0.07150000
C       -0.09230000       0.00170000      -0.15040000
C       -1.47500000      -0.53660000       0.24350000
C       -1.55310000      -2.04610000       0.15990000
C       -2.83240000      -2.86900000       0.15100000
C       -3.88080000      -2.20560000      -0.73530000
O       -2.93490000      -2.07440000      -1.83100000
C       -1.95010000      -2.79250000      -1.07830000
H        0.99510000       1.88330000      -0.35620000
H       -0.72710000       2.00200000      -0.73990000
H       -0.20350000       1.88550000       0.94410000
H        0.14180000      -0.33060000      -1.16950000
H        0.67140000      -0.44640000       0.49950000
H       -1.71860000      -0.21010000       1.26360000
H       -2.22880000      -0.09700000      -0.41810000
H       -0.76750000      -2.56720000       0.70720000
H       -3.01530000      -3.68390000       0.83860000
H       -4.69610000      -2.88100000      -1.01820000
H       -4.29470000      -1.24080000      -0.41950000
H       -1.35310000      -3.52680000      -1.60780000
