12
Properties=species:S:1:pos:R:3 gdb_23757=T pbc="F F F"
O        0.08310000       1.36690000      -0.07180000
C        0.05560000       0.01180000      -0.03890000
C        0.01800000      -0.73080000      -1.21890000
N       -0.01030000      -2.06320000      -1.24830000
C       -0.00210000      -2.71840000      -0.08550000
C        0.03440000      -2.08340000       1.15520000
C        0.06320000      -0.70330000       1.15690000
F        0.09930000       0.00010000       2.30040000
H        0.10670000       1.69030000       0.83720000
H        0.01110000      -0.20210000      -2.16860000
H       -0.02560000      -3.80300000      -0.13900000
H        0.04050000      -2.63510000       2.08740000
