17
Properties=species:S:1:pos:R:3 gdb_40523=T pbc="F F F"
C        0.25200000       1.45310000       0.02850000
O        1.22270000       0.43390000      -0.21010000
C       -0.14290000       0.04020000      -0.06460000
C       -0.48100000      -0.75880000       1.15090000
C        0.28980000      -0.57910000       2.47100000
O        0.37100000      -2.01750000       2.65560000
C       -0.28120000      -2.27430000       1.40390000
C       -1.81080000      -2.32680000       1.51530000
O       -1.90720000      -0.88600000       1.33950000
H        0.30870000       1.93410000       1.00370000
H        0.05430000       2.11850000      -0.80970000
H       -0.62240000      -0.30040000      -0.98230000
H        1.28670000      -0.13910000       2.35910000
H       -0.27130000      -0.08080000       3.26820000
H        0.25030000      -2.99250000       0.77730000
H       -2.32320000      -2.85740000       0.70320000
H       -2.19290000      -2.66170000       2.48490000
