19
Properties=species:S:1:pos:R:3 gdb_36118=T pbc="F F F"
C       -0.08190000      -1.16970000       0.37770000
C       -0.05020000       0.00560000       0.12790000
C        0.01410000       1.43280000      -0.18210000
C        1.43030000       1.98540000      -0.15950000
C        2.01140000       2.46000000       1.14550000
C        1.70580000       3.46870000       0.04990000
C        2.85120000       3.79010000      -0.84980000
C        3.26880000       2.71270000      -1.51900000
C        2.42050000       1.49400000      -1.22310000
H       -0.11790000      -2.20680000       0.60160000
H       -0.43220000       1.60600000      -1.17110000
H       -0.60710000       1.98700000       0.53310000
H        1.35200000       2.44160000       2.00800000
H        3.05420000       2.25690000       1.36740000
H        0.90880000       4.18790000       0.20920000
H        3.29560000       4.77740000      -0.90390000
H        4.12070000       2.67960000      -2.18860000
H        3.01640000       0.64270000      -0.87230000
H        1.89350000       1.14510000      -2.12290000
