13
Properties=species:S:1:pos:R:3 gdb_2117=T pbc="F F F"
N       -0.07210000       1.31450000       0.04720000
C        0.01350000       0.04420000       0.00040000
N        1.09250000      -0.79550000      -0.15930000
C        0.81480000      -2.21140000       0.07790000
C       -0.71340000      -2.30230000      -0.06910000
C       -1.20720000      -0.86560000       0.10160000
O       -2.33770000      -0.50970000       0.28210000
H        0.84700000       1.75760000      -0.02580000
H        2.03210000      -0.44100000      -0.07860000
H        1.34640000      -2.83580000      -0.64640000
H        1.13190000      -2.52330000       1.08260000
H       -0.99770000      -2.63590000      -1.07340000
H       -1.19000000      -2.97240000       0.64790000
