20
Properties=species:S:1:pos:R:3 gdb_89798=T pbc="F F F"
C        0.07390000       1.58210000       0.03960000
C        0.02850000       0.05370000       0.02420000
C        0.72510000      -0.58890000      -1.20690000
C        1.22920000      -1.94850000      -0.72180000
C        0.73020000      -3.22990000      -1.28560000
N        2.12380000      -2.79860000      -1.51160000
C        1.47030000      -1.78800000       0.75010000
O        2.17090000      -0.57610000       1.08210000
C        0.74180000      -0.59820000       1.20260000
H        1.11100000       1.93100000       0.07060000
H       -0.40040000       2.00190000      -0.85350000
H       -0.44570000       1.98700000       0.91450000
H       -1.01830000      -0.27910000       0.05840000
H        0.05980000      -0.66820000      -2.07090000
H        1.58180000       0.02840000      -1.49790000
H        0.62350000      -4.10930000      -0.65500000
H        0.02040000      -3.17610000      -2.10750000
H        2.22400000      -2.41690000      -2.44960000
H        1.68860000      -2.64760000       1.37730000
H        0.35640000      -0.48710000       2.21390000
