18
Properties=species:S:1:pos:R:3 gdb_67629=T pbc="F F F"
C       -0.13440000       1.50830000      -0.00820000
C       -0.00440000       0.01670000      -0.00820000
C        0.89630000      -0.84450000      -0.94930000
C       -0.12780000      -1.92190000      -0.98890000
N        1.14340000      -2.13230000      -0.27320000
C        0.91930000      -1.95850000       1.17190000
C       -0.17460000      -0.91000000       1.19520000
C       -1.03950000      -1.08000000      -0.03810000
O       -2.40820000      -0.95310000      -0.11180000
H        0.78400000       1.99040000       0.34760000
H       -0.34300000       1.89030000      -1.01380000
H       -0.95500000       1.82820000       0.64080000
H        1.59230000      -0.48310000      -1.69650000
H       -0.43720000      -2.59980000      -1.77490000
H        0.61480000      -2.91290000       1.61510000
H        1.84870000      -1.62940000       1.64790000
H       -0.61720000      -0.51560000       2.10240000
H       -2.81090000      -1.68170000       0.37480000
