22
Properties=species:S:1:pos:R:3 gdb_122317=T pbc="F F F"
O       -0.02000000       1.42530000      -0.35950000
C        0.06130000       0.03600000      -0.07640000
C       -1.35290000      -0.52750000      -0.07270000
C       -1.39560000      -2.02830000       0.24760000
C       -2.79420000      -2.57490000       0.23830000
C       -3.88450000      -2.30860000       1.29670000
C       -4.43730000      -3.75230000       1.04980000
C       -3.33930000      -3.95770000      -0.00210000
N       -3.40500000      -2.93170000      -1.04090000
H        0.87370000       1.77880000      -0.38790000
H        0.66810000      -0.49010000      -0.83160000
H        0.53630000      -0.14310000       0.90290000
H       -1.94640000       0.03420000       0.65910000
H       -1.80710000      -0.34860000      -1.05370000
H       -0.80230000      -2.58220000      -0.48920000
H       -0.94140000      -2.21190000       1.23100000
H       -3.48480000      -2.18780000       2.30700000
H       -4.55640000      -1.46930000       1.08690000
H       -4.32570000      -4.39380000       1.92740000
H       -5.46590000      -3.84030000       0.68310000
H       -2.82930000      -4.88560000      -0.23800000
H       -4.34450000      -2.55430000      -1.15750000
