21
Properties=species:S:1:pos:R:3 gdb_37976=T pbc="F F F"
C       -0.07800000       1.53610000       0.06800000
C        1.29380000       2.22450000       0.02900000
C        1.96990000       2.28370000      -1.34630000
C        2.17950000       0.95110000      -2.04680000
O        2.70140000      -0.12060000      -1.19890000
C        1.72420000      -1.02180000      -1.72880000
C        0.34110000      -0.62350000      -1.32530000
C       -0.01970000       0.00060000       0.02060000
C        1.01430000       0.06940000      -2.50070000
H       -0.58050000       1.82410000       0.99960000
H       -0.71070000       1.90850000      -0.74900000
H        1.18980000       3.25340000       0.39360000
H        1.96460000       1.71420000       0.73000000
H        1.38310000       2.91370000      -2.02990000
H        2.94390000       2.77780000      -1.23750000
H        2.87340000       1.08720000      -2.88770000
H        2.05460000      -2.01930000      -1.99650000
H       -0.39170000      -1.33770000      -1.69760000
H        0.69230000      -0.34560000       0.77980000
H       -0.99860000      -0.39200000       0.31800000
H        0.59840000       0.06710000      -3.49960000
