21
Properties=species:S:1:pos:R:3 gdb_106507=T pbc="F F F"
C        0.10710000       1.37690000       0.13530000
O       -0.15120000       0.01130000      -0.11420000
C        0.59330000      -0.53420000      -1.16860000
C        2.15610000      -0.54630000      -1.11540000
C        2.04180000      -1.88470000      -1.90530000
C        0.66110000      -2.08120000      -1.20900000
C        1.86030000      -1.60600000      -3.40850000
C        0.77860000      -0.57010000      -3.61480000
C        0.17040000      -0.05190000      -2.54850000
H        1.15950000       1.54900000       0.40420000
H       -0.13360000       2.01420000      -0.72810000
H       -0.52500000       1.67390000       0.97540000
H        2.69610000       0.28440000      -1.57610000
H        2.51350000      -0.71680000      -0.09610000
H        2.80780000      -2.64110000      -1.72550000
H        0.77730000      -2.48890000      -0.20170000
H       -0.13090000      -2.60840000      -1.74520000
H        2.80810000      -1.26690000      -3.85030000
H        1.59960000      -2.53350000      -3.93790000
H        0.50950000      -0.28470000      -4.62780000
H       -0.63690000       0.66980000      -2.62080000
