17
Properties=species:S:1:pos:R:3 gdb_17265=T pbc="F F F"
O       -0.12320000       1.33130000       0.04620000
C        0.00970000      -0.04210000       0.02540000
C        0.61200000      -0.96360000      -1.09190000
C        0.03450000      -1.92480000      -0.00680000
C        0.67050000      -0.99740000       1.07460000
C       -1.18850000      -0.99160000       0.04240000
C       -2.48110000      -0.96290000       0.73140000
N       -2.38520000      -1.00980000      -0.76420000
H        0.74950000       1.73160000      -0.02740000
H        0.10540000      -0.95830000      -2.05890000
H        1.70110000      -0.95500000      -1.19430000
H        0.04360000      -3.01070000      -0.02510000
H        1.76330000      -0.99320000       1.11230000
H        0.22320000      -1.01740000       2.07090000
H       -2.89760000      -1.86020000       1.18110000
H       -2.79800000      -0.03160000       1.19420000
H       -2.56680000      -0.08220000      -1.14350000
