21
Properties=species:S:1:pos:R:3 gdb_47655=T pbc="F F F"
O        0.09650000      -0.02960000       0.15740000
C        0.01730000       1.16700000      -0.01310000
C       -1.34150000       1.86700000      -0.01490000
C       -1.98980000       1.84360000       1.38570000
C       -1.06450000       2.37340000       2.50880000
C       -0.43990000       3.70120000       2.17540000
C        0.73370000       3.86140000       1.55930000
C        1.66780000       2.75040000       1.13670000
C        1.27100000       2.02080000      -0.17970000
H       -1.24150000       2.89670000      -0.36580000
H       -1.98880000       1.32840000      -0.71510000
H       -2.91180000       2.43460000       1.34940000
H       -2.27280000       0.81430000       1.62720000
H       -1.64470000       2.44770000       3.43510000
H       -0.28440000       1.62560000       2.69050000
H       -1.02820000       4.58670000       2.40950000
H        1.05890000       4.87160000       1.31940000
H        2.67200000       3.16120000       0.99360000
H        1.75530000       1.99490000       1.92650000
H        2.08410000       1.35070000      -0.47220000
H        1.11830000       2.76110000      -0.97370000
