19
Properties=species:S:1:pos:R:3 gdb_75460=T pbc="F F F"
C        0.35120000       1.48430000       0.03450000
C        0.08290000       0.01460000      -0.01850000
C       -0.24240000      -0.74030000      -1.06870000
C       -0.41380000      -2.19980000      -0.72730000
C        0.13940000      -2.28770000       0.71490000
C        0.16580000      -0.82760000       1.25780000
O        1.31130000      -0.55250000       2.02550000
C       -1.07010000      -0.55400000       2.10220000
O       -1.00400000      -0.11220000       3.22410000
H        1.34450000       1.67020000       0.45620000
H        0.29870000       1.93730000      -0.95860000
H       -0.36540000       2.00260000       0.68480000
H       -0.37750000      -0.35930000      -2.07600000
H       -1.46970000      -2.49850000      -0.77580000
H        0.11850000      -2.86010000      -1.42150000
H       -0.42510000      -2.97340000       1.35380000
H        1.18010000      -2.62070000       0.71620000
H        0.98530000      -0.23730000       2.88400000
H       -2.04220000      -0.77980000       1.61820000
