21
Properties=species:S:1:pos:R:3 gdb_38955=T pbc="F F F"
C        0.30670000       1.67520000       0.41920000
C        1.38630000       0.74640000      -0.07170000
C        2.29350000       0.08970000       0.96430000
C        1.37070000      -0.69250000       1.93060000
C        1.07930000      -0.06230000       3.30440000
O       -0.22990000      -0.48610000       3.64430000
C       -1.00850000      -0.45390000       2.45080000
C       -0.04730000      -0.75950000       1.27410000
C       -0.02600000       0.23260000       0.11600000
H        0.32630000       2.01450000       1.44940000
H       -0.05980000       2.42320000      -0.27600000
H        1.79090000       0.91970000      -1.06320000
H        2.97980000      -0.59770000       0.45910000
H        2.91760000       0.81780000       1.49730000
H        1.75620000      -1.70140000       2.09640000
H        1.75390000      -0.40240000       4.09540000
H        1.14310000       1.03810000       3.25860000
H       -1.80710000      -1.19240000       2.56380000
H       -1.47230000       0.53540000       2.31960000
H       -0.24100000      -1.76050000       0.87930000
H       -0.66130000       0.03100000      -0.73960000
