14
Properties=species:S:1:pos:R:3 gdb_26052=T pbc="F F F"
O       -0.22300000       1.35890000       0.09280000
C        0.01930000      -0.04140000      -0.01250000
C        0.79420000      -0.37190000      -1.21570000
C        1.44190000      -0.61580000      -2.19760000
C        0.65500000      -0.59860000       1.22310000
C        0.26520000      -1.45160000       2.20030000
N        1.28170000      -1.57490000       3.14060000
C        2.21410000      -0.80070000       2.69470000
O        1.92030000      -0.16960000       1.53410000
H        0.63500000       1.79910000       0.08860000
H       -0.97410000      -0.49740000      -0.09000000
H        2.00870000      -0.83820000      -3.06820000
H       -0.66670000      -1.98570000       2.29630000
H        3.18190000      -0.59650000       3.12510000
