18
Properties=species:S:1:pos:R:3 gdb_76050=T pbc="F F F"
C       -0.09770000       1.55690000      -0.06750000
C        0.00370000       0.05000000      -0.00320000
C        1.34890000      -0.66520000      -0.18360000
C        2.55530000       0.09610000      -0.33760000
N        3.52650000       0.71780000      -0.43840000
C        0.63420000      -0.64110000       1.15500000
C        1.14730000      -0.06910000       2.47320000
O        0.67650000      -1.23950000       3.17940000
C        0.16070000      -1.83790000       1.97280000
H        0.78160000       2.03780000       0.36940000
H       -0.18180000       1.89840000      -1.10360000
H       -0.98170000       1.90500000       0.47650000
H       -0.82220000      -0.48410000      -0.46800000
H        1.33940000      -1.60310000      -0.73060000
H        2.23400000       0.05520000       2.54890000
H        0.65220000       0.84660000       2.82010000
H       -0.92730000      -1.98080000       2.01420000
H        0.64320000      -2.79750000       1.74680000
