17
Properties=species:S:1:pos:R:3 gdb_103269=T pbc="F F F"
O       -0.01580000       1.36430000       0.10040000
C        0.04280000      -0.04020000      -0.14140000
C       -1.35160000      -0.62400000      -0.02860000
O       -2.26000000       0.07960000      -0.81390000
C       -1.70350000      -2.04400000       0.13930000
C       -0.66690000      -2.81170000       0.97290000
C       -0.97170000      -1.83240000       2.14220000
O       -0.63160000      -1.80650000       3.29290000
C       -1.96290000      -1.06400000       1.33630000
H       -0.16640000       1.49110000       1.04440000
H        0.40050000      -0.14760000      -1.17070000
H        0.75450000      -0.53460000       0.52800000
H       -1.98990000       1.00680000      -0.74470000
H       -2.46360000      -2.49690000      -0.48370000
H       -1.01190000      -3.81440000       1.24240000
H        0.35860000      -2.88010000       0.60060000
H       -2.87610000      -0.58480000       1.66470000
