16
Properties=species:S:1:pos:R:3 gdb_43933=T pbc="F F F"
O       -0.04290000      -0.01500000      -0.09530000
C       -0.02230000       1.17370000      -0.00230000
N       -1.05930000       2.14680000       0.02260000
C       -0.17750000       3.12740000       0.65020000
C        0.39410000       4.57100000       0.59770000
C        1.39230000       3.86230000       1.61500000
C        0.17070000       3.10630000       2.16470000
O        2.08280000       2.79710000       0.89140000
C        1.00840000       2.37430000       0.06230000
H       -2.01370000       1.94370000       0.28980000
H        0.78520000       4.93510000      -0.35350000
H       -0.18960000       5.33910000       1.10820000
H        2.09850000       4.42200000       2.22370000
H       -0.50700000       3.71830000       2.76340000
H        0.36970000       2.14190000       2.63730000
H        1.22040000       2.64090000      -0.98000000
