22
Properties=species:S:1:pos:R:3 gdb_117949=T pbc="F F F"
C       -0.29420000       1.40510000      -0.20270000
C       -0.48610000      -0.05170000      -0.59110000
O       -1.28690000      -0.66670000       0.40570000
C       -1.44560000      -2.07760000       0.30330000
C       -1.51360000      -2.64460000       1.71300000
C       -2.69360000      -2.39530000      -0.51540000
N       -3.74020000      -2.88070000       0.00590000
O       -2.48150000      -2.06050000      -1.81980000
C       -3.56430000      -2.21370000      -2.72520000
H        0.32480000       1.91780000      -0.94540000
H       -1.25920000       1.91680000      -0.14330000
H        0.19380000       1.48340000       0.77300000
H       -0.96160000      -0.13080000      -1.57740000
H        0.48810000      -0.56470000      -0.65630000
H       -0.58410000      -2.50300000      -0.23450000
H       -0.59350000      -2.39300000       2.24660000
H       -2.36590000      -2.22120000       2.24700000
H       -1.63320000      -3.73010000       1.69000000
H       -4.49690000      -3.01730000      -0.66250000
H       -3.87870000      -3.26210000      -2.79790000
H       -4.42330000      -1.59940000      -2.42960000
H       -3.19800000      -1.88020000      -3.69680000
