16
Properties=species:S:1:pos:R:3 gdb_123946=T pbc="F F F"
C       -0.01010000       1.43050000       0.01260000
C        1.43430000       1.95660000       0.00710000
O        2.13420000       1.58040000       1.19680000
C        1.98780000       0.24490000       1.43160000
C        2.77600000      -0.61610000       2.16170000
N        2.19200000      -1.83770000       2.02230000
N        1.07050000      -1.82650000       1.26340000
C        0.94690000      -0.55380000       0.90250000
N       -0.09010000      -0.02650000       0.13110000
H       -0.53850000       1.88900000       0.85850000
H       -0.51860000       1.74790000      -0.90180000
H        1.97190000       1.57000000      -0.87120000
H        1.44880000       3.04880000      -0.02000000
H        3.67350000      -0.46100000       2.73690000
H        2.48370000      -2.70440000       2.43630000
H       -0.25020000      -0.51730000      -0.73720000
