13
Properties=species:S:1:pos:R:3 gdb_35022=T pbc="F F F"
N        0.05950000      -1.16100000       0.02110000
C        0.04170000      -0.00520000       0.02810000
C        0.01540000       1.43170000       0.05980000
C        0.43580000       2.23070000       1.28440000
C        1.64050000       1.56690000       1.94320000
O        2.36590000       1.54930000       0.67340000
C        1.30680000       2.24320000       0.04290000
C        1.58800000       3.24460000      -0.93730000
N        1.79240000       4.06030000      -1.73090000
H       -0.79750000       1.88960000      -0.49540000
H       -0.19620000       3.00160000       1.70150000
H        2.15280000       2.21550000       2.65800000
H        1.50380000       0.56260000       2.35210000
