16
Properties=species:S:1:pos:R:3 gdb_128554=T pbc="F F F"
C       -0.06850000       1.42310000       0.07100000
O        0.01130000       0.00160000      -0.02940000
C        0.63740000      -0.61490000       0.98350000
C        0.86720000      -1.96720000       1.16320000
C        0.91930000      -3.48220000       0.99650000
C        1.69140000      -3.47990000       2.37580000
N        1.52630000      -2.00900000       2.33310000
N        1.73180000      -0.82550000       2.90190000
N        1.17520000       0.03300000       2.05440000
H        0.92930000       1.87170000       0.10490000
H       -0.60060000       1.75250000      -0.82250000
H       -0.61530000       1.72380000       0.97020000
H       -0.04350000      -3.99630000       1.01940000
H        1.50630000      -3.84770000       0.15160000
H        1.17420000      -3.94950000       3.21420000
H        2.73420000      -3.79970000       2.34060000
