17
Properties=species:S:1:pos:R:3 gdb_48718=T pbc="F F F"
O       -0.49660000       0.71270000       0.74160000
C        0.20620000       0.98770000      -0.20090000
C        1.37820000       1.89680000      -0.13800000
C        1.86020000       2.40770000       1.21760000
C        2.40680000       3.80850000       0.97060000
N        3.55340000       3.85520000       0.04200000
C        2.19800000       4.16950000      -0.45810000
C        1.55430000       2.99490000      -1.17250000
N        2.31450000       1.76480000      -1.27460000
H        0.02010000       0.58100000      -1.21900000
H        0.99930000       2.44200000       1.89210000
H        2.60670000       1.74690000       1.67040000
H        2.35860000       4.54750000       1.76420000
H        4.08230000       4.71250000       0.17820000
H        1.96830000       5.17700000      -0.78440000
H        0.83170000       3.18930000      -1.95880000
H        3.26600000       1.94900000      -0.95200000
