12
Properties=species:S:1:pos:R:3 gdb_129748=T pbc="F F F"
N       -0.03610000       1.38810000       0.30120000
C       -0.05400000       0.01880000       0.08310000
C       -1.08670000      -0.84620000      -0.12910000
O       -2.39700000      -0.60080000      -0.33000000
C       -3.32810000      -1.43810000       0.26370000
O       -4.48680000      -1.28930000       0.06720000
O       -0.61140000      -2.09250000      -0.21430000
N        0.79890000      -1.98330000      -0.02850000
N        1.07280000      -0.75750000       0.13060000
H        0.86710000       1.79330000       0.09370000
H       -0.77600000       1.88320000      -0.17810000
H       -2.85560000      -2.20450000       0.89560000
