19
Properties=species:S:1:pos:R:3 gdb_7982=T pbc="F F F"
C       -0.15110000       1.58310000       0.01510000
C        0.05470000       0.07130000       0.01830000
C        0.84020000      -0.46930000      -1.19870000
C        1.57510000      -1.71260000      -0.66940000
C        2.89630000      -2.06710000      -1.34520000
C        1.73840000      -1.41340000       0.82990000
O        2.46670000      -1.98730000       1.61120000
N        0.89110000      -0.37960000       1.12400000
H        0.81130000       2.10300000      -0.02270000
H       -0.74380000       1.88370000      -0.85480000
H       -0.68600000       1.91540000       0.91130000
H       -0.93210000      -0.41730000       0.06490000
H        0.18670000      -0.67270000      -2.05040000
H        1.57340000       0.28360000      -1.51300000
H        0.90460000      -2.58290000      -0.72120000
H        3.56970000      -1.20340000      -1.36480000
H        3.39380000      -2.86590000      -0.78920000
H        2.74030000      -2.39930000      -2.37600000
H        0.72730000      -0.11540000       2.08320000
