18
Properties=species:S:1:pos:R:3 gdb_78997=T pbc="F F F"
C        0.15120000       1.52480000       0.34600000
C        0.00760000       0.04540000       0.04860000
C        0.86030000      -0.67370000      -1.09660000
C        2.42100000      -0.78120000      -1.03210000
C        2.94210000      -1.14600000       0.36790000
C        1.96690000      -0.66040000       1.35960000
C        0.74110000      -1.00710000       0.90270000
C        0.91370000      -1.97440000      -0.27830000
N        2.38560000      -2.19130000      -0.51900000
H        1.20260000       1.81380000       0.43490000
H       -0.30190000       2.12200000      -0.45240000
H       -0.35270000       1.78950000       1.28160000
H       -1.04160000      -0.20120000      -0.16090000
H        0.46800000      -0.64700000      -2.11560000
H        3.10010000      -0.49080000      -1.82600000
H        4.01750000      -1.18390000       0.51220000
H        2.17250000       0.23560000       1.93540000
H        0.25810000      -2.83240000      -0.40850000
