19
Properties=species:S:1:pos:R:3 gdb_90445=T pbc="F F F"
C        0.01260000       1.63450000      -0.06230000
C        0.02730000       0.10620000      -0.03090000
C        1.02950000      -0.52110000      -1.07550000
N        2.28580000      -0.82630000      -0.33370000
C        1.90660000      -0.80580000       0.87830000
C        2.43110000      -0.60390000       2.29050000
O        3.64070000       0.06780000       2.45680000
C        1.06080000       0.16650000       2.48350000
N        0.60110000      -0.46450000       1.20900000
H        1.02420000       2.04490000       0.02680000
H       -0.40440000       1.97870000      -1.01380000
H       -0.60200000       2.05040000       0.74210000
H       -0.98720000      -0.27290000      -0.18450000
H        0.62120000      -1.44660000      -1.49890000
H        1.23800000       0.15940000      -1.90700000
H        2.46630000      -1.51700000       2.88970000
H        3.80690000       0.58090000       1.65770000
H        0.44860000      -0.08180000       3.35330000
H        1.21620000       1.24880000       2.42200000
