15
Properties=species:S:1:pos:R:3 gdb_24528=T pbc="F F F"
N       -0.00750000       1.34870000       0.00940000
C        1.16510000       2.03620000       0.00210000
C        2.35800000       1.34770000      -0.01290000
N        2.44670000      -0.00320000      -0.02120000
C        1.31370000      -0.67620000      -0.01420000
C        1.05790000      -2.06930000      -0.02010000
C       -0.31940000      -2.22630000      -0.00720000
C       -1.00490000      -0.96580000       0.00640000
C       -0.02080000      -0.00990000       0.00210000
H       -0.88000000       1.85820000       0.02050000
H        1.09780000       3.11510000       0.00870000
H        3.28940000       1.90260000      -0.01870000
H        1.80740000      -2.84510000      -0.03200000
H       -0.83150000      -3.18110000      -0.00770000
H       -2.07490000      -0.81960000       0.01750000
