14
Properties=species:S:1:pos:R:3 gdb_54654=T pbc="F F F"
N       -0.06150000       1.30850000       0.00640000
C        0.03590000      -0.03690000       0.00160000
O        1.06690000      -0.68580000      -0.00860000
C       -1.29840000      -0.73040000       0.01030000
N       -2.44070000      -0.14960000       0.02120000
C       -3.42930000      -1.23120000       0.02600000
C       -2.63570000      -2.55150000       0.01550000
O       -3.02360000      -3.69020000       0.01540000
N       -1.31390000      -2.11060000       0.00630000
H        0.77440000       1.86770000       0.00140000
H       -0.97330000       1.73760000       0.01510000
H       -4.07090000      -1.17340000       0.91200000
H       -4.08530000      -1.16810000      -0.84900000
H       -0.48180000      -2.68020000      -0.00200000
