18
Properties=species:S:1:pos:R:3 gdb_67086=T pbc="F F F"
C       -0.15490000       1.52390000      -0.00290000
C        0.06000000       0.05030000      -0.00150000
C        0.41310000      -0.96280000      -1.02150000
C        1.44360000      -1.64260000      -0.12610000
C        0.68310000      -0.99710000       1.05470000
C       -0.70970000      -1.65710000       0.95690000
N       -0.95060000      -0.98330000      -0.35480000
C        1.34060000      -0.67410000       2.34780000
O        2.50610000      -0.87030000       2.59400000
H        0.79620000       2.06520000       0.03900000
H       -0.67670000       1.81340000      -0.92060000
H       -0.76770000       1.84460000       0.84670000
H        0.40370000      -0.86530000      -2.09930000
H        1.51930000      -2.73440000      -0.13290000
H        2.43400000      -1.20090000      -0.25240000
H       -0.74280000      -2.75250000       0.94290000
H       -1.42960000      -1.27120000       1.68390000
H        0.66850000      -0.20820000       3.10580000
