18
Properties=species:S:1:pos:R:3 gdb_68458=T pbc="F F F"
C       -0.06750000       1.52830000       0.01030000
C        0.04990000       0.02980000      -0.03170000
C        0.77130000      -0.70490000      -1.18870000
C       -0.37590000      -1.71090000      -0.97810000
C       -0.05580000      -2.71160000       0.13010000
N        0.48310000      -1.96310000       1.25980000
C        0.51310000      -0.59490000       1.30030000
O        0.88030000       0.04340000       2.26580000
O       -1.19420000      -0.65990000      -0.40120000
H        0.90240000       1.97270000       0.24820000
H       -0.41480000       1.90590000      -0.95460000
H       -0.77100000       1.83310000       0.78950000
H        0.66920000      -0.16110000      -2.12950000
H        1.80110000      -1.03590000      -1.04110000
H       -0.84500000      -2.19060000      -1.84040000
H       -0.97340000      -3.24210000       0.41670000
H        0.67010000      -3.45480000      -0.22650000
H        0.70090000      -2.43740000       2.12330000
