19
Properties=species:S:1:pos:R:3 gdb_91749=T pbc="F F F"
C       -0.26890000       1.53740000      -0.10430000
C       -0.00080000       0.04290000      -0.00510000
O        0.78520000      -0.41500000      -1.12320000
C        1.92030000      -1.06200000      -0.55850000
O        1.46560000      -1.60470000       0.66410000
C        0.79400000      -0.47400000       1.23050000
C        1.84880000       0.48820000       1.80360000
C        2.98790000       0.65870000       0.82680000
C        3.03090000      -0.05880000      -0.29340000
H        0.66230000       2.10820000      -0.12040000
H       -0.81430000       1.75380000      -1.02700000
H       -0.88290000       1.87850000       0.73660000
H       -0.95560000      -0.49860000      -0.04070000
H        2.22460000      -1.87940000      -1.21620000
H        0.12530000      -0.83780000       2.01360000
H        1.39420000       1.45770000       2.04010000
H        2.22580000       0.09140000       2.75620000
H        3.76740000       1.37510000       1.07200000
H        3.81720000       0.05460000      -1.03220000
