22
Properties=species:S:1:pos:R:3 gdb_6559=T pbc="F F F"
C        0.01390000       1.54060000       0.35080000
C        0.04050000       0.04780000      -0.01490000
C        0.80180000      -0.75760000       1.04800000
C       -1.38850000      -0.48240000      -0.16440000
O        0.60420000      -0.14460000      -1.32870000
C        1.92730000       0.23450000      -1.54030000
C        3.03820000      -0.78090000      -1.41480000
C        2.56380000      -0.31670000      -2.77680000
H        1.01800000       1.93940000       0.52260000
H       -0.45730000       2.11870000      -0.44960000
H       -0.55930000       1.69450000       1.27020000
H        0.31260000      -0.65270000       2.02160000
H        0.81900000      -1.81990000       0.78690000
H        1.83340000      -0.41150000       1.15040000
H       -1.92350000       0.08170000      -0.93350000
H       -1.37160000      -1.53410000      -0.46360000
H       -1.93670000      -0.39550000       0.77830000
H        2.16250000       1.26500000      -1.28010000
H        4.00840000      -0.45360000      -1.05560000
H        2.75550000      -1.78270000      -1.11360000
H        1.96410000      -1.01260000      -3.35230000
H        3.20240000       0.33130000      -3.36640000
