20
Properties=species:S:1:pos:R:3 gdb_14352=T pbc="F F F"
O       -0.05010000       1.39770000       0.54960000
C        0.03040000       0.05430000       0.06870000
C        0.74340000      -0.88480000       1.06340000
C       -0.31940000      -1.27330000       2.10490000
C       -0.67320000      -0.21740000       3.19390000
C       -2.04720000       0.03920000       2.51140000
C       -1.71060000      -1.02000000       1.41930000
C       -1.40240000      -0.49700000       0.00600000
H        0.84700000       1.70970000       0.70420000
H        0.51480000       0.04350000      -0.91870000
H        1.08580000      -1.77680000       0.52400000
H        1.63260000      -0.41780000       1.50460000
H       -0.14890000      -2.27710000       2.50030000
H       -0.74020000      -0.62870000       4.20460000
H       -0.00890000       0.64900000       3.21820000
H       -2.91250000      -0.21620000       3.12860000
H       -2.17810000       1.05190000       2.12690000
H       -2.39900000      -1.86770000       1.39660000
H       -2.10250000       0.27000000      -0.33810000
H       -1.43170000      -1.32210000      -0.71500000
