22
Properties=species:S:1:pos:R:3 gdb_111061=T pbc="F F F"
C        0.47060000       0.50700000      -0.75990000
C       -0.43950000       0.04220000       0.38470000
C        0.36230000      -0.51450000       1.54880000
N       -0.39870000      -1.05210000       2.78740000
C       -0.58790000      -2.34740000       1.97240000
C        0.88040000      -1.98250000       1.65380000
C        1.87840000      -2.71760000       0.79820000
O        1.35870000      -2.79280000      -0.52470000
C        0.95830000      -1.67380000       3.16450000
H        1.03170000      -0.34010000      -1.16430000
H       -0.11580000       0.94900000      -1.57110000
H        1.18640000       1.26350000      -0.41810000
H       -1.02790000       0.88720000       0.76520000
H       -1.15720000      -0.68620000      -0.00210000
H        1.09940000       0.23840000       1.85900000
H       -0.76430000      -3.22560000       2.60060000
H       -1.33630000      -2.28210000       1.18410000
H        2.84380000      -2.18660000       0.82140000
H        2.04590000      -3.72380000       1.21590000
H        1.99780000      -3.25570000      -1.07430000
H        1.69580000      -0.94160000       3.50690000
H        0.87070000      -2.51010000       3.86390000
