20
Properties=species:S:1:pos:R:3 gdb_53449=T pbc="F F F"
C        0.00260000       1.46910000       0.03670000
C        0.01560000       0.01360000       0.01240000
C        0.02570000      -1.18980000      -0.02820000
C        0.04780000      -2.64810000      -0.00990000
C        0.72780000      -3.16680000       1.27850000
O        0.71500000      -4.58050000       1.32580000
C       -0.60560000      -5.09960000       1.28420000
C       -1.31990000      -4.65460000       0.00700000
N       -1.31120000      -3.19980000      -0.17500000
H        0.84550000       1.88220000      -0.52820000
H       -0.91790000       1.86350000      -0.40740000
H        0.06890000       1.85360000       1.06050000
H        0.64060000      -3.01930000      -0.85870000
H        1.77640000      -2.85870000       1.31630000
H        0.20610000      -2.74160000       2.15300000
H       -0.51220000      -6.18920000       1.33480000
H       -1.17320000      -4.75950000       2.16880000
H       -0.81500000      -5.10720000      -0.85630000
H       -2.35780000      -5.00470000       0.00330000
H       -1.92020000      -2.76180000       0.51170000
