17
Properties=species:S:1:pos:R:3 gdb_15117=T pbc="F F F"
N        0.04000000      -1.12590000       0.39460000
C        0.01300000       0.01520000       0.21470000
C        0.00070000       1.45830000      -0.01510000
C        1.41510000       2.06990000      -0.02890000
C        1.38300000       3.58110000      -0.28910000
C        2.76720000       4.18350000      -0.28140000
C        3.04410000       5.51490000       0.26970000
O        3.38320000       4.33450000       1.00030000
H       -0.50730000       1.65230000      -0.96730000
H       -0.60830000       1.92900000       0.76580000
H        1.90530000       1.87690000       0.93030000
H        2.01480000       1.56850000      -0.79690000
H        0.90940000       3.78550000      -1.25900000
H        0.77620000       4.07850000       0.47710000
H        3.44410000       3.80450000      -1.05030000
H        3.88760000       6.09320000      -0.10430000
H        2.22700000       6.10300000       0.68590000
