23
Properties=species:S:1:pos:R:3 gdb_70016=T pbc="F F F"
C        0.00130000       1.56790000       0.05090000
C        0.02600000       0.06580000       0.03420000
C       -0.86840000      -0.77470000       0.90280000
C        0.62270000      -0.93030000       1.04030000
C        1.20810000      -1.77840000      -0.10580000
C        0.64920000      -3.17150000      -0.45640000
C        0.22470000      -3.03890000      -1.93880000
C       -0.31060000      -1.59260000      -2.07880000
C        0.59370000      -0.77310000      -1.13700000
H        0.96590000       1.98780000      -0.25820000
H       -0.76270000       1.96210000      -0.63130000
H       -0.22410000       1.95110000       1.05190000
H       -1.34380000      -0.23320000       1.71560000
H       -1.48850000      -1.57000000       0.49780000
H        1.12390000      -0.72660000       1.98020000
H        2.30050000      -1.76590000      -0.10130000
H        1.37480000      -3.97570000      -0.30340000
H       -0.22220000      -3.40650000       0.16450000
H        1.10490000      -3.16390000      -2.58210000
H       -0.50360000      -3.79650000      -2.24540000
H       -0.28470000      -1.24050000      -3.11420000
H       -1.35570000      -1.54580000      -1.75280000
H        1.35500000      -0.21300000      -1.68670000
