19
Properties=species:S:1:pos:R:3 gdb_111808=T pbc="F F F"
C        0.13090000       1.30920000       0.10140000
O       -0.20300000      -0.03620000      -0.17060000
C        0.55290000      -0.60530000      -1.20060000
C        1.96470000      -1.12980000      -0.83160000
C        1.60130000      -2.18930000       0.21340000
O        0.38100000      -2.75600000      -0.31010000
C        0.10330000      -2.03910000      -1.51730000
C        1.16550000      -2.43370000      -2.54740000
O        2.36020000      -1.78770000      -2.03870000
H        1.16620000       1.41970000       0.45530000
H        0.00090000       1.94520000      -0.78750000
H       -0.54630000       1.65500000       0.88550000
H        0.58860000       0.04090000      -2.08850000
H        2.73560000      -0.41480000      -0.54720000
H        2.37440000      -2.96120000       0.28550000
H        1.41180000      -1.75900000       1.20370000
H       -0.93680000      -2.19640000      -1.79900000
H        1.30730000      -3.51900000      -2.57280000
H        0.95290000      -2.07060000      -3.56090000
