17
Properties=species:S:1:pos:R:3 gdb_92424=T pbc="F F F"
O        0.64070000       0.82420000      -0.53610000
C        0.12800000      -0.33260000       0.04920000
C        0.09130000      -0.44720000       1.61090000
C       -1.44370000      -0.65790000       1.56790000
C       -2.25070000       0.64880000       1.57160000
O       -2.04990000       0.83910000       0.14220000
C       -1.42440000      -0.45550000       0.00930000
C       -2.08850000      -1.35130000      -0.99060000
O       -1.63550000      -2.42090000      -1.31510000
H       -0.02140000       1.51480000      -0.38930000
H        0.60110000      -1.19870000      -0.42020000
H        0.65500000      -1.29590000       2.00270000
H        0.41050000       0.45830000       2.13420000
H       -1.86780000      -1.53400000       2.05370000
H       -3.31700000       0.53280000       1.79810000
H       -1.84160000       1.47800000       2.15960000
H       -3.04440000      -0.95740000      -1.40120000
