15
Properties=species:S:1:pos:R:3 gdb_56415=T pbc="F F F"
C        0.67090000       0.85910000       0.41610000
C       -0.28360000      -0.28190000      -0.01700000
C       -1.65260000       0.22880000      -0.20520000
N       -2.72280000       0.64320000      -0.33460000
C        0.18550000      -0.96040000      -1.22760000
C        0.59680000      -1.50650000      -2.21480000
C        1.08370000      -2.17450000      -3.41970000
C        2.54590000      -2.30910000      -3.44570000
N        3.69450000      -2.42030000      -3.47490000
H        1.66840000       0.45000000       0.58820000
H        0.73210000       1.62080000      -0.36340000
H        0.30730000       1.32150000       1.33640000
H       -0.33180000      -1.01700000       0.79800000
H        0.64250000      -3.17560000      -3.50730000
H        0.77090000      -1.62130000      -4.31450000
