19
Properties=species:S:1:pos:R:3 gdb_68875=T pbc="F F F"
O       -0.26660000       1.26450000      -0.10780000
C        0.00200000      -0.10220000       0.02160000
C       -0.38460000      -0.82590000       1.30180000
C       -1.19730000      -1.01180000       0.03110000
O       -2.48520000      -0.49390000      -0.05090000
C       -0.78100000      -2.03000000      -1.04420000
C       -0.24670000      -1.04440000      -2.14640000
C        0.86070000      -0.78400000      -1.06110000
C        0.71820000      -2.29740000      -0.73780000
H        0.33000000       1.75640000       0.46480000
H        0.23120000      -1.60070000       1.74280000
H       -0.88460000      -0.19080000       2.02710000
H       -2.39300000       0.46320000      -0.15690000
H       -1.48120000      -2.83500000      -1.26410000
H        0.13140000      -1.55350000      -3.03680000
H       -0.88780000      -0.20560000      -2.42560000
H        1.82470000      -0.33250000      -1.29890000
H        1.01500000      -2.67620000       0.24070000
H        1.17750000      -2.91080000      -1.51570000
