14
Properties=species:S:1:pos:R:3 gdb_27079=T pbc="F F F"
N        0.09170000       1.38180000       0.26880000
C       -0.03270000       0.01630000       0.07970000
C       -1.07540000      -0.84030000      -0.08620000
O       -2.37520000      -0.46590000      -0.25060000
C       -3.35180000      -1.33060000       0.14500000
N       -4.55380000      -0.99030000      -0.01330000
N       -0.62280000      -2.14290000      -0.10880000
C        0.65770000      -2.02950000       0.03110000
O        1.09620000      -0.75120000       0.15580000
H        0.72180000       1.82530000      -0.39130000
H       -0.81510000       1.83100000       0.23220000
H       -2.95700000      -2.25990000       0.56150000
H       -5.16650000      -1.72930000       0.32600000
H        1.40550000      -2.80490000       0.04100000
