16
Properties=species:S:1:pos:R:3 gdb_127795=T pbc="F F F"
C        0.35000000       1.37570000       0.10310000
N        0.10590000      -0.05680000       0.11090000
N       -0.09540000      -0.69120000      -1.06410000
N       -0.29490000      -1.95250000      -0.81140000
C       -0.23260000      -2.14210000       0.53080000
C        0.02810000      -0.93580000       1.14690000
C        0.18810000      -0.64400000       2.58220000
C        1.19860000       0.26500000       3.15200000
O       -0.17250000       0.65680000       3.07010000
H        1.42260000       1.58810000       0.15640000
H       -0.03990000       1.76480000      -0.83710000
H       -0.15650000       1.83500000       0.95110000
H       -0.37910000      -3.11230000       0.97870000
H       -0.15170000      -1.46240000       3.21550000
H        1.57250000       0.07940000       4.15740000
H        1.88060000       0.79740000       2.49210000
