19
Properties=species:S:1:pos:R:3 gdb_73526=T pbc="F F F"
O        0.24960000       1.42970000      -0.13020000
C        0.11790000      -0.00320000      -0.03950000
C        0.57390000      -0.55160000      -1.40090000
C       -0.74270000      -0.62680000      -2.22540000
C       -1.80270000      -0.80860000      -1.15270000
C       -1.32790000      -0.48240000       0.04510000
C       -1.70510000      -0.72060000       1.48220000
C       -0.32210000      -0.83650000       2.11480000
C        0.66740000      -0.49710000       1.28070000
H       -0.09540000       1.80310000       0.68810000
H        1.33960000       0.08230000      -1.85340000
H        0.98330000      -1.55870000      -1.27650000
H       -0.90620000       0.29030000      -2.80630000
H       -0.73780000      -1.45480000      -2.94270000
H       -2.79280000      -1.19820000      -1.36630000
H       -2.27750000       0.10040000       1.93900000
H       -2.31030000      -1.62450000       1.61640000
H       -0.18900000      -1.15720000       3.14290000
H        1.72250000      -0.47730000       1.53020000
