23
Properties=species:S:1:pos:R:3 gdb_122413=T pbc="F F F"
C       -0.22720000       1.42270000      -0.07790000
C        0.04290000      -0.07250000       0.06840000
C        1.13920000      -0.63110000      -0.89040000
C        2.14880000      -0.56910000       0.27180000
C        0.96250000      -0.45010000       1.27070000
O        2.99130000      -1.69140000       0.35970000
C        3.93400000      -1.63500000       1.41790000
C        4.86340000      -2.82480000       1.23440000
O        5.50750000      -2.78320000      -0.02280000
H        0.70050000       2.00590000      -0.05220000
H       -0.72800000       1.64160000      -1.02750000
H       -0.86900000       1.78800000       0.73140000
H       -0.90430000      -0.61720000       0.03620000
H        0.95310000      -1.67230000      -1.16650000
H        1.36830000      -0.05690000      -1.79190000
H        2.75440000       0.34920000       0.25220000
H        1.04690000       0.27350000       2.08600000
H        0.71520000      -1.43210000       1.68400000
H        4.50840000      -0.69640000       1.36260000
H        3.43460000      -1.67670000       2.39860000
H        5.64330000      -2.80850000       2.00290000
H        4.28430000      -3.75390000       1.36040000
H        4.80730000      -2.60980000      -0.66360000
