16
Properties=species:S:1:pos:R:3 gdb_34564=T pbc="F F F"
N        0.06480000      -1.14950000       0.02680000
C       -0.00800000       0.00700000       0.00330000
C       -0.05170000       1.41950000      -0.04920000
C       -1.12770000       2.22770000      -0.00710000
C       -0.61670000       3.65170000       0.04060000
C        0.09160000       3.78270000       1.42720000
O        1.22510000       2.91220000       1.31780000
C        1.17030000       2.34880000      -0.01350000
C        0.65190000       3.52780000      -0.84770000
H       -2.16250000       1.92620000       0.08890000
H       -1.33220000       4.44070000      -0.18310000
H        0.43200000       4.81040000       1.60250000
H       -0.54500000       3.46920000       2.26130000
H        2.13720000       1.90770000      -0.24260000
H        0.42420000       3.27160000      -1.88290000
H        1.31410000       4.39580000      -0.80050000
