19
Properties=species:S:1:pos:R:3 gdb_86666=T pbc="F F F"
C       -0.06620000       1.51260000       0.06840000
C       -0.00230000      -0.00710000      -0.03230000
O       -1.24460000      -0.55350000      -0.39800000
C        1.13710000      -0.52980000      -0.93710000
O        1.56960000       0.37470000      -1.92190000
C        2.01530000      -0.76390000       0.31930000
C        0.72910000      -0.73240000       1.18580000
C        0.76560000      -0.02000000       2.50380000
O        0.07840000      -0.29760000       3.45590000
H        0.90660000       1.95270000       0.30170000
H       -0.39970000       1.92320000      -0.88730000
H       -0.77140000       1.81580000       0.85150000
H       -1.93480000      -0.13000000       0.12450000
H        0.81430000      -1.48360000      -1.37240000
H        2.08570000      -0.10280000      -2.57750000
H        2.62630000      -1.66720000       0.35980000
H        2.64970000       0.10760000       0.51170000
H        0.27310000      -1.71540000       1.31690000
H        1.48200000       0.83450000       2.54950000
