17
Properties=species:S:1:pos:R:3 gdb_20540=T pbc="F F F"
C        0.12110000       1.37580000      -0.35290000
C        0.02900000      -0.08810000       0.11930000
C        0.67040000      -0.26040000       1.50250000
C       -1.39420000      -0.57780000       0.08950000
C       -2.21050000      -0.96470000       1.10680000
O       -3.42080000      -1.32430000       0.64840000
N       -3.43660000      -1.18140000      -0.73360000
C       -2.24410000      -0.74290000      -1.04690000
H        1.16480000       1.70440000      -0.38790000
H       -0.30660000       1.50370000      -1.35170000
H       -0.42280000       2.03690000       0.33000000
H        0.60210000      -0.69860000      -0.59270000
H        0.63930000      -1.30350000       1.83170000
H        1.71700000       0.05720000       1.48200000
H        0.15550000       0.34930000       2.25390000
H       -2.07740000      -1.04090000       2.17430000
H       -2.01460000      -0.55670000      -2.08740000
