15
Properties=species:S:1:pos:R:3 gdb_32064=T pbc="F F F"
O        0.18570000       1.33870000      -0.07110000
C        0.03560000      -0.05070000      -0.07150000
C       -1.41220000      -0.46110000      -0.02970000
N       -2.33720000       0.42310000       0.00280000
C       -3.64420000      -0.04900000       0.04100000
C       -3.94660000      -1.36030000       0.04440000
C       -2.88920000      -2.34780000       0.00700000
N       -3.05060000      -3.60110000       0.00670000
O       -1.58840000      -1.79350000      -0.03040000
H       -0.71120000       1.70520000      -0.04010000
H        0.49020000      -0.50060000      -0.96840000
H        0.54250000      -0.50760000       0.79340000
H       -4.41290000       0.71550000       0.06830000
H       -4.96290000      -1.72870000       0.07430000
H       -2.15710000      -4.09220000      -0.02310000
