16
Properties=species:S:1:pos:R:3 gdb_122788=T pbc="F F F"
O       -0.33440000       1.15120000      -1.35660000
C       -0.21820000       0.20740000      -0.31930000
C       -1.56730000      -0.32460000       0.13730000
O       -2.08480000      -1.17230000      -0.89890000
C       -3.44040000      -1.06820000      -1.16430000
C       -3.74830000      -0.00390000      -2.21540000
O       -2.92610000       0.67980000      -2.76840000
C       -5.18420000       0.12190000      -2.53770000
N       -6.31760000       0.18950000      -2.75680000
H       -0.92850000       0.78510000      -2.02540000
H        0.41370000      -0.64980000      -0.60430000
H        0.26880000       0.71090000       0.52360000
H       -1.46910000      -0.91190000       1.06090000
H       -2.24560000       0.51770000       0.32300000
H       -3.79880000      -2.02710000      -1.56740000
H       -4.05590000      -0.86040000      -0.27350000
