14
Properties=species:S:1:pos:R:3 gdb_26840=T pbc="F F F"
N        0.16680000       1.42830000      -0.12890000
C        0.00840000       0.04210000      -0.06320000
C       -1.11100000      -0.78440000      -0.09470000
O       -2.38690000      -0.34130000      -0.14620000
N       -0.77280000      -2.08290000      -0.08050000
C        0.56030000      -2.11000000      -0.03370000
N        1.06070000      -0.82840000      -0.03210000
C        1.44300000      -3.26050000       0.02370000
O        1.10230000      -4.42190000       0.00980000
H        0.47640000       1.83970000       0.74690000
H       -0.70590000       1.86900000      -0.39460000
H       -2.95070000      -1.12370000      -0.18870000
H        2.03310000      -0.56420000      -0.05620000
H        2.52110000      -2.97170000       0.08130000
