22
Properties=species:S:1:pos:R:3 gdb_117192=T pbc="F F F"
C        0.19030000       1.36170000      -0.66150000
C       -0.01600000       0.05540000       0.10840000
C       -1.31570000      -0.65370000      -0.27320000
C       -1.55280000      -1.94780000       0.48490000
O       -0.79380000      -2.32700000       1.35590000
C       -2.76270000      -2.77920000       0.12360000
C       -3.93610000      -2.13140000      -0.57930000
C       -2.42970000      -4.22040000      -0.14330000
N       -3.09710000      -3.83530000       1.09410000
H        1.12670000       1.84690000      -0.37000000
H        0.22960000       1.18760000      -1.74290000
H       -0.62370000       2.07070000      -0.47210000
H        0.82510000      -0.62390000      -0.06730000
H       -0.01930000       0.24660000       1.18650000
H       -2.18210000       0.00160000      -0.10320000
H       -1.34240000      -0.87670000      -1.34950000
H       -3.65460000      -1.72570000      -1.55600000
H       -4.72330000      -2.87330000      -0.73080000
H       -4.36040000      -1.31770000       0.01890000
H       -3.04080000      -4.76760000      -0.85700000
H       -1.38360000      -4.51000000      -0.10030000
H       -2.39310000      -3.78980000       1.83220000
