17
Properties=species:S:1:pos:R:3 gdb_24139=T pbc="F F F"
C       -0.42370000       1.04460000       0.04450000
C        1.08740000       1.01530000       0.17610000
C        0.33580000      -0.23880000      -0.11710000
O        0.29880000      -1.17790000       0.94160000
C       -0.79050000      -1.95580000       1.01180000
C       -1.48590000      -2.41600000       2.08430000
C       -2.49000000      -3.28950000       1.54110000
C       -2.32850000      -3.27960000       0.19600000
O       -1.27770000      -2.46590000      -0.14720000
H       -0.99780000       1.16100000       0.95660000
H       -0.86880000       1.49360000      -0.83620000
H        1.69520000       1.44620000      -0.61130000
H        1.49810000       1.11060000       1.17450000
H        0.41080000      -0.69580000      -1.09810000
H       -1.30430000      -2.16550000       3.11590000
H       -3.23640000      -3.84130000       2.09080000
H       -2.83950000      -3.74770000      -0.62770000
