16
Properties=species:S:1:pos:R:3 gdb_74091=T pbc="F F F"
C       -0.06720000       1.52510000       0.01450000
C        0.13590000       0.03630000      -0.01150000
O       -0.72810000      -0.76500000       0.81780000
C        0.69540000      -0.78110000       1.06500000
C        1.41740000      -1.96640000       0.40960000
O        2.05400000      -2.80720000       1.00830000
C        1.18950000      -1.83190000      -1.02790000
C        0.48210000      -0.70170000      -1.29350000
N        0.10530000      -0.19250000      -2.49340000
H        0.80470000       2.04610000      -0.39300000
H       -0.94560000       1.82180000      -0.57120000
H       -0.23150000       1.85870000       1.04110000
H        1.01990000      -0.39410000       2.02620000
H        1.50640000      -2.57500000      -1.74780000
H        0.19240000      -0.76730000      -3.31610000
H       -0.62500000       0.49900000      -2.52430000
