14
Properties=species:S:1:pos:R:3 gdb_101966=T pbc="F F F"
C       -0.30510000       1.31500000       0.23620000
O       -0.15020000      -0.09930000       0.10510000
C        0.58530000      -0.51870000      -1.02830000
C        2.07960000      -0.08580000      -0.84730000
O        2.72810000       0.50620000      -1.65630000
C        0.58670000      -1.97990000      -1.05840000
C        0.67740000      -3.17660000      -1.07580000
C        0.03410000       0.02460000      -2.29110000
N       -0.41850000       0.47500000      -3.25280000
H        0.66150000       1.83200000       0.29400000
H       -0.88300000       1.73190000      -0.59650000
H       -0.84830000       1.46450000       1.16980000
H        2.45620000      -0.39810000       0.14830000
H        0.72830000      -4.23820000      -1.09840000
