20
Properties=species:S:1:pos:R:3 gdb_80750=T pbc="F F F"
C        0.35850000       1.69250000       0.19260000
C        0.14880000       0.19770000       0.07010000
C        1.20040000      -0.78710000      -0.39140000
C        2.66420000      -0.38320000      -0.35600000
N        2.90210000      -0.00090000       1.03820000
C        1.84310000      -0.43760000       1.95200000
C        0.69480000      -0.82820000       1.03860000
C        3.99820000       0.66260000       1.47890000
O        4.21690000       0.94460000       2.64090000
H        1.34960000       1.94950000       0.57130000
H        0.23500000       2.18120000      -0.78020000
H       -0.37900000       2.12860000       0.87480000
H       -0.84400000      -0.05900000      -0.29320000
H        0.92170000      -1.54790000      -1.11110000
H        3.28900000      -1.23720000      -0.65300000
H        2.90390000       0.45160000      -1.02530000
H        2.17020000      -1.29690000       2.55170000
H        1.61290000       0.37340000       2.65020000
H        0.04090000      -1.62170000       1.38080000
H        4.68520000       0.93330000       0.65120000
