20
Properties=species:S:1:pos:R:3 gdb_13435=T pbc="F F F"
C       -0.24340000       1.23340000      -1.52890000
C       -0.02610000      -0.10580000      -0.85430000
C        1.34710000      -0.64180000      -0.49960000
C        2.63090000       0.10930000      -0.78440000
C        0.38240000      -0.24370000       0.60120000
C        0.61450000       0.95690000       1.50570000
C       -0.68560000       1.43930000       2.11490000
O       -1.09060000       2.57220000       2.07320000
H        0.47010000       1.99540000      -1.20760000
H       -0.14930000       1.13650000      -2.61610000
H       -1.24590000       1.61960000      -1.31560000
H       -0.73120000      -0.86170000      -1.19240000
H        1.45800000      -1.71690000      -0.62280000
H        2.52530000       1.19090000      -0.67560000
H        3.42940000      -0.21170000      -0.10610000
H        2.97150000      -0.08310000      -1.80770000
H       -0.07670000      -1.07590000       1.13120000
H        1.27600000       0.66070000       2.33400000
H        1.08170000       1.80120000       0.99650000
H       -1.27570000       0.64010000       2.62390000
