18
Properties=species:S:1:pos:R:3 gdb_62400=T pbc="F F F"
O       -0.03010000       1.38010000      -0.08670000
C        0.03160000      -0.02850000      -0.02890000
C        0.97590000      -0.52540000      -1.03960000
N        1.74350000      -0.90030000      -1.81900000
C        0.11300000      -0.64020000       1.41750000
C       -1.39000000      -0.24850000       1.53620000
C       -1.40730000      -0.63480000       0.02610000
C       -1.12790000      -2.14710000       0.07950000
C        0.03200000      -2.15150000       1.13760000
H        0.84550000       1.73170000       0.11030000
H        0.86980000      -0.28480000       2.11780000
H       -2.00630000      -0.84940000       2.20870000
H       -1.54630000       0.81390000       1.70670000
H       -2.16570000      -0.26810000      -0.66420000
H       -2.00780000      -2.70220000       0.41310000
H       -0.81540000      -2.55400000      -0.88500000
H        0.96300000      -2.55740000       0.73480000
H       -0.21950000      -2.71270000       2.04090000
