19
Properties=species:S:1:pos:R:3 gdb_120115=T pbc="F F F"
C       -0.05190000       1.52620000       0.08250000
C       -0.13160000       0.00350000       0.21670000
C       -1.48300000      -0.56190000      -0.24190000
C       -1.53890000      -2.07170000      -0.14210000
C       -1.91810000      -2.82970000       1.07800000
O       -2.91910000      -2.09740000       1.83770000
C       -3.82720000      -2.24520000       0.78940000
O       -4.97440000      -1.94180000       0.78690000
C       -2.83350000      -2.91410000      -0.12220000
H        0.92000000       1.90400000       0.41410000
H       -0.19490000       1.84020000      -0.95740000
H       -0.82400000       2.01680000       0.68500000
H        0.67530000      -0.45980000      -0.36690000
H        0.04090000      -0.28650000       1.26060000
H       -2.28490000      -0.12120000       0.35870000
H       -1.67290000      -0.26930000      -1.28230000
H       -0.77280000      -2.58650000      -0.72260000
H       -1.36690000      -3.59310000       1.60870000
H       -3.03830000      -3.70720000      -0.82620000
