17
Properties=species:S:1:pos:R:3 gdb_27785=T pbc="F F F"
C        0.01800000       1.52950000      -0.04830000
C       -0.06100000       0.03350000      -0.00580000
C       -1.21370000      -0.69130000      -0.07920000
C       -1.11250000      -2.11600000      -0.02380000
C       -2.37380000      -2.93560000      -0.10260000
N        0.01860000      -2.76520000       0.09230000
C        1.21070000      -2.06650000       0.16970000
O        2.30880000      -2.56710000       0.27810000
N        1.10350000      -0.65190000       0.11470000
H        0.62840000       1.86330000      -0.89500000
H       -0.97680000       1.96590000      -0.14630000
H        0.48050000       1.92110000       0.86470000
H       -2.17220000      -0.20000000      -0.17610000
H       -2.91370000      -2.72360000      -1.03240000
H       -2.13100000      -3.99700000      -0.05830000
H       -3.04850000      -2.68260000       0.72330000
H        1.98720000      -0.16440000       0.17270000
