18
Properties=species:S:1:pos:R:3 gdb_79017=T pbc="F F F"
O        0.16450000       1.41040000      -0.19420000
C        0.02970000       0.02800000      -0.02530000
C        0.20550000      -0.63520000       1.37710000
C       -0.89180000       0.04480000       2.22200000
C       -2.03510000       0.03800000       1.25390000
C       -1.37780000      -0.64470000       0.03650000
C       -0.69180000      -1.79860000       0.83970000
C       -1.64070000      -2.17930000       1.96300000
N       -2.05230000      -0.84920000       2.43970000
H       -0.39440000       1.84070000       0.46270000
H        0.67220000      -0.43220000      -0.78080000
H        1.18110000      -0.79700000       1.83350000
H       -0.69250000       0.80310000       2.96840000
H       -2.80940000       0.79040000       1.17590000
H       -1.98750000      -0.81600000      -0.84970000
H       -0.19940000      -2.57900000       0.26380000
H       -2.51690000      -2.74050000       1.62200000
H       -1.15610000      -2.73240000       2.77430000
