17
Properties=species:S:1:pos:R:3 gdb_125902=T pbc="F F F"
C        0.18800000       1.47960000       0.07080000
C       -0.04210000      -0.02960000      -0.02790000
C        0.66440000      -0.64200000      -1.30520000
C        1.87300000      -1.24010000      -0.66710000
C        1.75640000      -1.26400000       0.69360000
N        0.53350000      -0.75750000       1.15000000
N        2.83550000      -1.84480000       1.25860000
N        3.64580000      -2.19780000       0.28030000
N        3.05940000      -1.84600000      -0.89080000
H        1.25940000       1.70760000       0.08720000
H       -0.26160000       1.99860000      -0.78240000
H       -0.26380000       1.88560000       0.98210000
H       -1.11680000      -0.22880000      -0.07080000
H        0.02890000      -1.39840000      -1.78180000
H        0.86550000       0.13350000      -2.05200000
H        0.59170000      -0.18220000       1.98190000
H        3.54550000      -2.04610000      -1.74940000
