18
Properties=species:S:1:pos:R:3 gdb_97910=T pbc="F F F"
C       -0.26690000       1.34320000       0.35410000
N        0.02750000      -0.02440000      -0.03730000
C       -0.01370000      -1.05980000       0.98340000
C       -1.34580000      -1.28180000       1.54910000
C       -2.44120000      -1.44360000       2.02030000
C       -3.77260000      -1.66150000       2.57140000
O       -3.94050000      -0.87110000       3.74090000
C        0.27770000      -0.33310000      -1.34280000
O        0.31080000       0.45730000      -2.26100000
H        0.47180000       1.70600000       1.07900000
H       -0.22870000       1.95910000      -0.54400000
H       -1.26140000       1.40830000       0.80790000
H        0.36010000      -1.98850000       0.53660000
H        0.68280000      -0.80260000       1.79430000
H       -4.52130000      -1.40700000       1.80370000
H       -3.89550000      -2.73470000       2.79100000
H       -4.82820000      -1.03680000       4.07470000
H        0.46100000      -1.41800000      -1.47660000
