19
Properties=species:S:1:pos:R:3 gdb_116332=T pbc="F F F"
C        0.02340000       1.38590000       0.01560000
O       -0.10490000      -0.01560000      -0.09360000
C        0.63420000      -0.59510000      -1.15160000
C        2.12760000      -0.75500000      -0.81930000
O        2.78720000      -1.42640000      -1.87970000
C        2.41860000      -2.78960000      -1.99620000
C        0.92470000      -3.03810000      -1.87710000
O        0.38600000      -3.00530000      -0.55060000
C        0.03360000      -1.94950000      -1.44780000
H        1.03690000       1.69890000       0.30430000
H       -0.23830000       1.89080000      -0.92730000
H       -0.67210000       1.70990000       0.79350000
H        0.54200000       0.01980000      -2.06330000
H        2.61420000       0.21860000      -0.72470000
H        2.22550000      -1.29580000       0.13220000
H        2.76910000      -3.11310000      -2.98150000
H        2.93340000      -3.39750000      -1.23440000
H        0.52340000      -3.83720000      -2.50050000
H       -1.01140000      -1.94500000      -1.75570000
