18
Properties=species:S:1:pos:R:3 gdb_45754=T pbc="F F F"
O        0.27870000       0.05950000      -0.03130000
C        0.10460000       1.25530000       0.00450000
N       -1.11830000       1.90230000      -0.03370000
C       -0.96400000       3.29540000       0.04650000
C        0.32550000       3.63650000       0.11990000
C        1.16550000       2.38000000       0.10200000
C        2.08620000       2.19740000       1.29490000
C        3.20470000       1.19240000       1.23300000
C        3.51880000       2.66850000       1.22970000
H       -1.99360000       1.40780000      -0.07570000
H       -1.84260000       3.92490000       0.03750000
H        0.71710000       4.63940000       0.19440000
H        1.77220000       2.32090000      -0.81310000
H        1.58740000       2.30770000       2.25370000
H        3.42500000       0.61860000       2.12570000
H        3.32850000       0.63770000       0.31010000
H        3.86580000       3.11290000       0.30220000
H        3.95540000       3.10730000       2.12000000
