17
Properties=species:S:1:pos:R:3 gdb_19252=T pbc="F F F"
C       -0.11450000       1.54050000       0.08410000
C        0.00300000       0.03240000      -0.06270000
C        0.75170000      -0.57550000      -1.27110000
C        2.23030000      -0.26950000      -1.22710000
C        1.66580000      -1.30380000      -0.29410000
N        0.97650000      -0.66530000       0.81130000
C        1.28640000      -0.51130000       2.11720000
O        0.66980000       0.17770000       2.90670000
H        0.84390000       2.03760000      -0.09040000
H       -0.83900000       1.92550000      -0.64090000
H       -0.45080000       1.79260000       1.09170000
H       -0.98380000      -0.43270000       0.04870000
H        0.26880000      -0.96740000      -2.15500000
H        2.79330000      -0.66190000      -2.06840000
H        2.60320000       0.66990000      -0.83060000
H        1.97170000      -2.34190000      -0.25140000
H        2.16870000      -1.12310000       2.40060000
