21
Properties=species:S:1:pos:R:3 gdb_113398=T pbc="F F F"
C        0.28110000       1.53570000       0.23040000
C       -0.20330000       0.13270000      -0.15170000
C        0.53780000      -0.44550000      -1.34200000
C        1.88420000      -1.14730000      -1.14060000
C        0.67680000      -1.91620000      -1.53590000
C       -0.00210000      -3.16560000      -0.95120000
C       -1.02750000      -3.12400000      -2.11280000
C        0.39640000      -2.89750000      -2.68210000
O        0.87980000      -3.99850000      -1.80910000
H        1.34650000       1.52790000       0.48300000
H        0.14310000       2.23940000      -0.59790000
H       -0.26860000       1.92480000       1.09320000
H       -0.08660000      -0.54300000       0.70520000
H       -1.27930000       0.16360000      -0.36930000
H        0.45860000       0.14960000      -2.25090000
H        2.66690000      -0.98810000      -1.87540000
H        2.24590000      -1.24980000      -0.12140000
H       -0.13390000      -3.47470000       0.08570000
H       -1.47260000      -4.08750000      -2.36440000
H       -1.73570000      -2.29240000      -2.14730000
H        0.74150000      -2.88290000      -3.71620000
