20
Properties=species:S:1:pos:R:3 gdb_40027=T pbc="F F F"
C        0.01940000       1.51890000      -0.02670000
C        1.31790000       0.75160000      -0.00550000
C        0.00830000       0.00910000       0.03400000
C       -0.45850000      -0.76830000       1.27490000
C       -1.55460000      -1.67720000       0.70260000
C       -2.60390000      -0.82950000      -0.05950000
N       -1.90930000      -1.04560000      -1.37600000
C       -1.04620000      -2.08350000      -0.70760000
C       -0.44490000      -0.81090000      -1.14830000
H       -0.26410000       2.06710000       0.86610000
H       -0.28050000       1.99360000      -0.95520000
H        1.90610000       0.71120000      -0.91690000
H        1.91050000       0.77370000       0.90360000
H        0.36130000      -1.36860000       1.68950000
H       -0.83350000      -0.11430000       2.06980000
H       -1.92320000      -2.44760000       1.37930000
H       -3.58740000      -1.30220000      -0.11450000
H       -2.72160000       0.21900000       0.23620000
H       -0.87720000      -3.07170000      -1.11930000
H        0.09930000      -0.74450000      -2.08480000
