18
Properties=species:S:1:pos:R:3 gdb_110402=T pbc="F F F"
C       -0.04870000       1.58860000      -0.00120000
C        0.11880000       0.06920000       0.12430000
C        0.74380000      -0.54110000      -1.11510000
C        0.65010000      -2.03350000      -1.42540000
C       -0.82930000      -1.84570000      -1.91790000
N       -0.11410000      -0.53170000      -2.39580000
C        0.77400000      -1.69410000      -2.95370000
C       -0.47930000      -2.50320000      -3.24410000
O       -0.92070000      -3.27150000      -4.03970000
H        0.91890000       2.08190000      -0.14320000
H       -0.67910000       1.83880000      -0.85930000
H       -0.50960000       2.00970000       0.89680000
H        0.75990000      -0.16810000       0.98360000
H       -0.85200000      -0.39770000       0.32820000
H        1.72370000      -0.08460000      -1.30740000
H        1.06540000      -2.90570000      -0.91100000
H       -1.74510000      -1.81700000      -1.33320000
H        1.68010000      -1.48100000      -3.51800000
