15
Properties=species:S:1:pos:R:3 gdb_17740=T pbc="F F F"
C        0.04260000       1.56760000      -0.00970000
O        1.21520000       0.71930000      -0.02170000
C       -0.04760000       0.11460000       0.00610000
C       -0.57670000      -0.93490000       0.96170000
C       -1.81430000      -1.21690000       0.04970000
C       -1.45960000      -2.69870000       0.05810000
N       -0.06390000      -2.07940000       0.02780000
C       -0.60910000      -0.95330000      -0.90990000
H       -0.10700000       2.13520000       0.90740000
H       -0.13880000       2.11720000      -0.93210000
H       -0.50190000      -1.02600000       2.04520000
H       -2.78260000      -0.70570000       0.06140000
H       -1.66080000      -3.27480000       0.96670000
H       -1.69190000      -3.29240000      -0.83170000
H       -0.57180000      -1.06560000      -1.99340000
