19
Properties=species:S:1:pos:R:3 gdb_59036=T pbc="F F F"
C        0.04700000       1.52990000      -0.15080000
C        0.02460000       0.00920000       0.06800000
O        0.63030000      -0.34670000       1.30140000
C       -1.38230000      -0.53460000      -0.00560000
C       -2.01190000      -1.16780000      -1.00490000
C       -3.43890000      -1.54080000      -0.68900000
C       -3.64890000      -1.02870000       0.74950000
C       -2.30850000      -0.40680000       1.14680000
O       -2.04280000       0.09470000       2.22300000
H        1.07300000       1.89470000      -0.05160000
H       -0.32850000       1.79460000      -1.14480000
H       -0.57300000       2.03290000       0.59800000
H        0.63280000      -0.46900000      -0.70900000
H        0.02300000      -0.04780000       1.99450000
H       -1.56210000      -1.40550000      -1.96450000
H       -4.13210000      -1.08350000      -1.40550000
H       -3.58840000      -2.62370000      -0.77510000
H       -4.43690000      -0.27360000       0.82650000
H       -3.90470000      -1.82270000       1.45700000
