15
Properties=species:S:1:pos:R:3 gdb_14412=T pbc="F F F"
C        0.07400000       1.54640000       0.01580000
C       -0.05090000       0.06160000      -0.01760000
C        0.49550000      -0.96270000      -0.99280000
N        0.92300000      -0.93700000       0.45110000
C       -0.16950000      -1.66090000       1.20360000
C       -1.21500000      -0.96770000       0.32000000
C       -0.88170000      -1.55060000      -1.07010000
O       -1.53250000      -2.05050000      -1.94290000
H        1.09340000       1.84110000      -0.24900000
H       -0.61700000       2.01210000      -0.69400000
H       -0.14700000       1.93910000       1.01370000
H        1.26680000      -0.85980000      -1.74360000
H       -0.11220000      -2.75470000       1.17290000
H       -0.15110000      -1.31250000       2.23860000
H       -2.24370000      -0.77060000       0.60960000
