16
Properties=species:S:1:pos:R:3 gdb_127584=T pbc="F F F"
C       -0.01680000       1.44890000      -0.01600000
N        0.00310000      -0.00970000      -0.01200000
N        0.00280000      -0.61850000      -1.18990000
C        0.02070000      -1.92190000      -1.17780000
C        0.03970000      -2.65970000       0.05090000
C        0.05990000      -4.16170000       0.01490000
N        0.03990000      -2.05700000       1.20590000
C        0.02150000      -0.66980000       1.24470000
O        0.02020000      -0.00800000       2.25950000
H        0.86570000       1.83310000       0.50120000
H       -0.03000000       1.77380000      -1.05500000
H       -0.90030000       1.80900000       0.51630000
H        0.02030000      -2.41180000      -2.14450000
H        0.94270000      -4.52210000      -0.52520000
H        0.07080000      -4.55720000       1.03040000
H       -0.81850000      -4.54620000      -0.51580000
