19
Properties=species:S:1:pos:R:3 gdb_111298=T pbc="F F F"
C        0.15740000       1.34130000      -0.10550000
O       -0.22350000       0.00190000       0.15800000
C        0.51440000      -0.58580000       1.18570000
C        0.13800000      -2.03000000       1.48640000
O        0.46650000      -2.81110000       0.32390000
C        1.51960000      -2.50980000       1.25680000
C        2.30820000      -3.63510000       1.83980000
C        1.98230000      -1.09750000       0.83450000
O        2.38510000      -0.95620000      -0.49670000
H        1.20340000       1.40480000      -0.42790000
H       -0.48960000       1.70470000      -0.90720000
H        0.01510000       1.97890000       0.78090000
H        0.51650000       0.03550000       2.09520000
H       -0.64360000      -2.41580000       2.13070000
H        1.65120000      -4.46370000       2.11730000
H        3.04080000      -4.00530000       1.11450000
H        2.85400000      -3.30410000       2.72920000
H        2.75890000      -0.66530000       1.46980000
H        1.67670000      -1.35530000      -1.02020000
