20
Properties=species:S:1:pos:R:3 gdb_116254=T pbc="F F F"
C        0.08630000       1.46000000      -0.05300000
O       -0.23500000       0.09440000      -0.20490000
C        0.52650000      -0.57250000      -1.17570000
C        2.01220000      -0.81730000      -0.82050000
C        2.39970000      -2.14440000      -1.53100000
C        1.10400000      -2.66580000      -2.20370000
C       -0.04400000      -1.98990000      -1.41840000
C       -0.31150000      -2.68650000      -0.15730000
N       -0.50480000      -3.27380000       0.81920000
H        1.10770000       1.60750000       0.32520000
H       -0.01500000       2.00670000      -1.00390000
H       -0.61850000       1.87530000       0.67040000
H        0.46170000      -0.03260000      -2.13630000
H        2.64730000       0.01900000      -1.12100000
H        2.09020000      -0.91740000       0.26630000
H        3.19480000      -2.00500000      -2.26720000
H        2.76720000      -2.87030000      -0.80170000
H        1.04520000      -2.33110000      -3.24450000
H        1.02630000      -3.75430000      -2.20410000
H       -0.97750000      -1.94970000      -1.98660000
