16
Properties=species:S:1:pos:R:3 gdb_126121=T pbc="F F F"
C       -0.06380000       1.50750000      -0.07950000
C        0.03040000      -0.01030000       0.04700000
C        0.77350000      -0.46030000       1.29040000
O        1.24400000       0.31440000       2.10030000
C        0.91540000      -1.91900000       1.49770000
C        1.54590000      -2.55720000       2.54710000
N        1.39590000      -3.86310000       2.26520000
N        0.71280000      -4.05140000       1.10900000
N        0.42470000      -2.87500000       0.64990000
H        0.93030000       1.96040000      -0.11860000
H       -0.60610000       1.78350000      -0.98790000
H       -0.58310000       1.94120000       0.77910000
H       -0.96150000      -0.48040000       0.06280000
H        0.52840000      -0.46160000      -0.82090000
H        2.05680000      -2.18250000       3.41690000
H        1.71400000      -4.66710000       2.78370000
