19
Properties=species:S:1:pos:R:3 gdb_68797=T pbc="F F F"
C       -0.08060000       1.52600000       0.02980000
C        0.04840000       0.03890000       0.05800000
C        1.22560000      -0.78830000      -0.36890000
C        0.64420000      -0.96710000       1.02310000
C        1.41950000      -0.84860000       2.30050000
C       -0.70030000      -1.69800000       0.87690000
O       -1.15780000      -0.72840000      -0.11330000
C       -0.71540000      -3.07670000       0.41690000
C       -0.71650000      -4.22260000       0.05340000
H        0.88040000       1.99960000       0.25040000
H       -0.40090000       1.86290000      -0.96260000
H       -0.81900000       1.87140000       0.76010000
H        1.10350000      -1.55590000      -1.12800000
H        2.18130000      -0.27190000      -0.38250000
H        2.18350000      -0.06840000       2.22380000
H        0.76860000      -0.59730000       3.14570000
H        1.93310000      -1.78720000       2.54070000
H       -1.30890000      -1.59690000       1.78540000
H       -0.72160000      -5.23360000      -0.27200000
