14
Properties=species:S:1:pos:R:3 gdb_20158=T pbc="F F F"
O       -0.05030000       1.46420000      -0.00240000
C        1.34380000       1.73150000       0.04710000
C        1.87870000       0.99290000       1.28750000
C        2.45650000      -0.11740000       0.43580000
C        1.09780000      -0.28570000       1.07900000
C        0.06860000       0.04710000      -0.05310000
O        0.79950000      -0.16880000      -1.25490000
C        1.95830000       0.55070000      -0.85870000
H        1.56900000       2.77530000      -0.15040000
H        2.18150000       1.39590000       2.24450000
H        3.30770000      -0.76810000       0.58460000
H        0.90590000      -0.99350000       1.87160000
H       -0.90030000      -0.44290000      -0.07170000
H        2.61750000       0.76070000      -1.69570000
