19
Properties=species:S:1:pos:R:3 gdb_61315=T pbc="F F F"
O        0.63640000       1.85990000       0.45520000
C        0.16090000       0.60090000       0.03230000
C        0.59190000       0.45060000      -1.43690000
C        0.07480000      -0.76380000      -2.05950000
N       -0.34180000      -1.73310000      -2.53130000
C        0.72020000      -0.50580000       0.93240000
N        0.41590000      -0.15610000       2.31730000
C       -0.77240000      -0.76920000       2.91220000
C        0.59250000      -1.20070000       3.31950000
H        0.66300000       1.80630000       1.42230000
H       -0.94070000       0.56490000       0.07630000
H        0.23640000       1.32330000      -1.99410000
H        1.68590000       0.45620000      -1.49680000
H        0.31820000      -1.48810000       0.63680000
H        1.81160000      -0.53600000       0.82460000
H       -1.36150000      -0.12680000       3.55940000
H       -1.35110000      -1.45420000       2.29570000
H        0.92970000      -2.17650000       2.97600000
H        1.01270000      -0.87910000       4.26780000
