20
Properties=species:S:1:pos:R:3 gdb_22304=T pbc="F F F"
C        0.08570000       1.53590000       0.05210000
C       -0.00570000       0.03810000      -0.05540000
C        0.03040000      -0.60110000      -1.22720000
C       -0.04280000      -2.09800000      -1.37750000
C        0.37590000      -2.81510000      -0.08260000
C       -0.28710000      -2.18900000       1.11210000
C       -0.17800000      -0.69270000       1.25910000
N       -0.89830000      -2.96740000       1.91930000
O       -1.45340000      -2.27120000       3.01070000
H        0.93840000       1.83660000       0.67510000
H        0.19920000       2.00490000      -0.92870000
H       -0.80890000       1.95530000       0.53050000
H        0.11560000      -0.01870000      -2.14230000
H       -1.06210000      -2.40000000      -1.65890000
H        0.60190000      -2.42400000      -2.20220000
H        0.14510000      -3.88230000      -0.11260000
H        1.46410000      -2.71110000       0.03110000
H        0.66080000      -0.45350000       1.93240000
H       -1.06600000      -0.32100000       1.78340000
H       -1.90340000      -2.97650000       3.48700000
