13
Properties=species:S:1:pos:R:3 gdb_4699=T pbc="F F F"
O        0.08260000       1.31780000       0.25190000
C        0.06740000      -0.01310000       0.00760000
C        0.05990000      -0.75980000      -1.15310000
C        0.04370000      -2.12230000      -0.75350000
C        0.04180000      -2.17260000       0.62840000
N        0.05670000      -0.85090000       1.07510000
C        0.02840000      -3.25540000       1.52300000
C        0.01700000      -4.17420000       2.30500000
H        0.08920000       1.78220000      -0.59050000
H        0.06530000      -0.37280000      -2.16010000
H        0.03430000      -2.98410000      -1.40170000
H        0.05910000      -0.55960000       2.03750000
H        0.00690000      -4.99060000       2.98300000
