18
Properties=species:S:1:pos:R:3 gdb_36669=T pbc="F F F"
C       -0.08510000      -1.20650000      -0.00390000
C       -0.04150000      -0.01100000       0.11060000
C        0.04540000       1.43800000       0.23660000
C        1.38680000       2.00170000      -0.28230000
C        1.44760000       3.50730000      -0.15430000
C        1.87060000       4.16060000       1.12810000
C        2.78070000       4.24490000      -0.09000000
C        4.01700000       3.51460000      -0.10380000
N        5.01360000       2.92670000      -0.11920000
H       -0.13290000      -2.26280000      -0.10060000
H       -0.78350000       1.90400000      -0.31250000
H       -0.08750000       1.72620000       1.28720000
H        2.21100000       1.54080000       0.27120000
H        1.51750000       1.71020000      -1.33010000
H        0.69160000       4.03990000      -0.72620000
H        1.39030000       5.07890000       1.44480000
H        2.20200000       3.51840000       1.93670000
H        2.83370000       5.20130000      -0.59880000
