23
Properties=species:S:1:pos:R:3 gdb_120560=T pbc="F F F"
C       -0.07810000       1.38920000      -0.09710000
O       -0.08940000      -0.01630000      -0.11870000
C        0.77780000      -0.56100000      -1.09150000
C        0.67300000      -2.06970000      -1.04630000
C       -0.64590000      -2.73930000      -1.52310000
C        0.20590000      -3.83590000      -2.21910000
C       -0.22840000      -4.32340000      -3.58430000
O        0.76890000      -5.21010000      -4.07310000
C        1.43530000      -2.89030000      -2.12320000
H        0.92290000       1.78840000       0.13400000
H       -0.40000000       1.81750000      -1.06030000
H       -0.77390000       1.71250000       0.68150000
H        0.50560000      -0.19110000      -2.09690000
H        1.81860000      -0.24090000      -0.90320000
H        0.93150000      -2.41250000      -0.03920000
H       -1.36390000      -3.05230000      -0.76250000
H       -1.16700000      -2.10920000      -2.25340000
H        0.34040000      -4.70150000      -1.56200000
H       -1.20760000      -4.82520000      -3.50610000
H       -0.35760000      -3.45940000      -4.25820000
H        0.50670000      -5.50560000      -4.94980000
H        1.56650000      -2.31780000      -3.04890000
H        2.39710000      -3.32790000      -1.84890000
