17
Properties=species:S:1:pos:R:3 gdb_112246=T pbc="F F F"
O       -0.10250000       1.43820000       0.27870000
C        0.01070000       0.05870000      -0.03670000
C       -1.38180000      -0.53920000       0.02250000
C       -1.47880000      -2.08170000      -0.11410000
C       -2.07490000      -2.07420000       1.30950000
O       -2.49110000      -2.89510000       2.06970000
N       -1.94720000      -0.67640000       1.38070000
C       -2.29030000       0.30300000       2.30290000
N       -2.80960000       0.02500000       3.42730000
H        0.78070000       1.80910000       0.36380000
H        0.41870000      -0.09120000      -1.04890000
H        0.66310000      -0.46870000       0.67570000
H       -2.04560000       0.01550000      -0.64920000
H       -2.15940000      -2.44750000      -0.88420000
H       -0.52370000      -2.60640000      -0.19230000
H       -2.04300000       1.29990000       1.92510000
H       -2.98450000       0.88480000       3.94550000
