12
Properties=species:S:1:pos:R:3 gdb_9118=T pbc="F F F"
O       -0.03360000       1.47780000       0.01060000
C       -0.01580000       0.06040000       0.00220000
C       -1.37690000      -0.45260000       0.01240000
C       -2.49200000      -0.91370000       0.02060000
C       -3.81950000      -1.47980000       0.03030000
O       -4.02710000      -2.67770000       0.02610000
C       -4.89130000      -0.50360000       0.04580000
C       -5.78630000       0.30070000       0.05860000
H        0.88080000       1.77880000       0.00440000
H        0.49580000      -0.33810000      -0.88960000
H        0.51310000      -0.34840000       0.87900000
H       -6.57990000       1.00790000       0.07050000
