20
Properties=species:S:1:pos:R:3 gdb_14750=T pbc="F F F"
C       -0.02060000       1.55040000       0.01070000
C       -0.02250000       0.01940000       0.00250000
C       -1.43510000      -0.57380000       0.01270000
C       -1.43500000      -2.09520000       0.00450000
O       -2.77560000      -2.54810000       0.01490000
C       -2.86790000      -3.95750000       0.00810000
C       -4.26590000      -4.36880000       0.01910000
C       -5.40900000      -4.73640000       0.02790000
H        0.99890000       1.94810000       0.00310000
H       -0.54170000       1.95090000      -0.86580000
H       -0.52510000       1.94150000       0.90100000
H        0.51920000      -0.34210000      -0.88170000
H        0.53580000      -0.35140000       0.87240000
H       -1.98230000      -0.22920000       0.89860000
H       -1.99900000      -0.21970000      -0.85890000
H       -0.91040000      -2.47680000      -0.88930000
H       -0.89350000      -2.48630000       0.88400000
H       -2.36700000      -4.37440000      -0.88320000
H       -2.35020000      -4.38400000       0.88520000
H       -6.42230000      -5.05360000       0.03600000
