17
Properties=species:S:1:pos:R:3 gdb_25155=T pbc="F F F"
N       -0.14110000       1.27730000      -0.20860000
C       -0.04320000       0.01820000      -0.07930000
O        1.10810000      -0.74150000      -0.12530000
C        0.75560000      -2.06620000       0.06210000
C       -0.56790000      -2.15760000       0.22220000
N       -1.08540000      -0.86570000       0.13730000
C       -2.44790000      -0.43570000       0.24290000
C       -3.57450000      -1.26970000      -0.30180000
C       -3.40470000      -1.09910000       1.19470000
H        0.77070000       1.69820000      -0.35900000
H        1.55150000      -2.78840000       0.05220000
H       -1.18980000      -3.01980000       0.38870000
H       -2.49340000       0.63930000       0.12570000
H       -4.39150000      -0.76020000      -0.80000000
H       -3.32820000      -2.23640000      -0.72820000
H       -3.04550000      -1.95280000       1.75970000
H       -4.10410000      -0.47150000       1.73530000
