21
Properties=species:S:1:pos:R:3 gdb_57910=T pbc="F F F"
C       -0.02160000       1.36530000       0.20210000
C       -0.01060000      -0.15930000      -0.04270000
C       -1.41780000      -0.75340000       0.06450000
C        0.60340000      -0.42300000      -1.41950000
O       -0.07660000      -0.52190000      -2.41610000
C        2.11440000      -0.56390000      -1.46310000
C        2.63070000      -2.01160000      -1.19890000
O        3.19810000      -2.09390000      -2.51310000
C        2.75870000      -0.75710000      -2.84660000
H        0.97960000       1.80280000       0.13500000
H       -0.66000000       1.86420000      -0.53390000
H       -0.41540000       1.58320000       1.19920000
H        0.64500000      -0.61570000       0.71140000
H       -2.05840000      -0.35410000      -0.72560000
H       -1.39990000      -1.84200000      -0.04340000
H       -1.86380000      -0.51320000       1.03440000
H        2.58710000       0.18280000      -0.82130000
H        3.38710000      -2.09980000      -0.40930000
H        1.85230000      -2.76820000      -1.03410000
H        2.04070000      -0.75210000      -3.67230000
H        3.60210000      -0.09540000      -3.07460000
