15
Properties=species:S:1:pos:R:3 gdb_44257=T pbc="F F F"
O       -0.00560000      -0.02320000      -0.37480000
C       -0.03540000       1.14340000      -0.12830000
C       -1.16460000       2.14740000       0.18840000
C       -0.06470000       3.14430000       0.67610000
C        1.06190000       2.23220000       0.12320000
O        2.01650000       1.97520000       1.13560000
C        1.40550000       2.17070000       2.40070000
C        0.18850000       3.08270000       2.18300000
O       -0.44620000       3.62480000       3.04670000
H       -1.68100000       2.48940000      -0.71370000
H       -1.91360000       1.82300000       0.91560000
H       -0.14780000       4.17350000       0.32920000
H        1.58750000       2.54360000      -0.78290000
H        1.06340000       1.22100000       2.84220000
H        2.12590000       2.62570000       3.08590000
