19
Properties=species:S:1:pos:R:3 gdb_66507=T pbc="F F F"
C        0.09950000       1.41860000       0.11910000
C        0.00100000      -0.07550000       0.07190000
C        0.54080000      -1.05290000      -0.95580000
C        1.28240000      -1.00210000       0.34450000
C        0.50980000      -2.14800000       0.95680000
C       -0.16280000      -2.09290000       2.12350000
C       -1.56120000      -1.55990000       1.78950000
C       -1.26960000      -0.96830000       0.36380000
C       -0.42110000      -2.07810000      -0.28700000
H        1.05720000       1.76380000      -0.28570000
H       -0.69600000       1.88990000      -0.47130000
H        0.01790000       1.79670000       1.14540000
H        0.86140000      -0.91190000      -1.97880000
H        2.22520000      -0.52840000       0.59240000
H        0.30780000      -1.84660000       3.07070000
H       -2.38420000      -2.28580000       1.71470000
H       -1.85800000      -0.83030000       2.55260000
H       -2.14380000      -0.59680000      -0.18330000
H       -0.83420000      -2.97520000      -0.74390000
