22
Properties=species:S:1:pos:R:3 gdb_15185=T pbc="F F F"
C        0.02590000       1.44200000       0.12000000
C       -0.08030000      -0.08310000       0.19040000
C       -1.49250000      -0.58260000      -0.08360000
O       -1.50410000      -1.99030000       0.00480000
C       -2.77610000      -2.55450000      -0.23900000
C       -2.67350000      -4.05340000      -0.17830000
C       -2.73460000      -4.75950000       1.15060000
C       -3.88890000      -4.86840000       0.18620000
H        1.04800000       1.77510000       0.32220000
H       -0.25490000       1.81730000      -0.87040000
H       -0.63060000       1.92280000       0.85370000
H        0.59880000      -0.54630000      -0.53460000
H        0.22840000      -0.44130000       1.17920000
H       -2.20020000      -0.14550000       0.64380000
H       -1.82660000      -0.25670000      -1.08520000
H       -3.50600000      -2.19680000       0.50930000
H       -3.14930000      -2.23300000      -1.22750000
H       -2.00670000      -4.47950000      -0.92230000
H       -2.10280000      -5.62770000       1.30020000
H       -2.86920000      -4.15010000       2.03810000
H       -4.80400000      -4.33720000       0.42740000
H       -4.04850000      -5.80870000      -0.32940000
