19
Properties=species:S:1:pos:R:3 gdb_17313=T pbc="F F F"
C       -0.08270000       1.62810000      -0.03080000
C        0.14280000       0.12000000       0.05790000
C        1.39190000      -0.70280000      -0.19810000
C        2.68350000      -0.17490000       0.47730000
N        2.40040000       1.12090000       1.14710000
C        2.02570000      -0.16420000       1.79560000
C        0.70600000      -0.72510000       1.17580000
C       -0.03730000      -1.83780000       1.85790000
H        0.61360000       2.10000000      -0.72710000
H       -1.10110000       1.82420000      -0.38510000
H        0.04670000       2.12020000       0.93270000
H       -0.69340000      -0.43010000      -0.37630000
H        1.41420000      -1.48990000      -0.94310000
H        3.69190000      -0.45450000       0.20150000
H        3.27270000       1.42090000       1.58410000
H        2.40650000      -0.43220000       2.77320000
H       -0.59190000      -1.47260000       2.73190000
H       -0.75900000      -2.30260000       1.17850000
H        0.64510000      -2.62300000       2.20650000
