21
Properties=species:S:1:pos:R:3 gdb_40913=T pbc="F F F"
C        0.15640000       1.38360000       0.47810000
C        1.45910000       1.59680000      -0.34150000
C        1.36830000       0.12090000      -0.80070000
C       -0.11330000       0.09780000      -0.35160000
O        1.63220000      -0.14650000      -2.19240000
C        2.62290000      -1.18620000      -2.12060000
C        2.05190000      -2.14340000      -1.04550000
C        2.32750000      -0.88950000      -0.15460000
C        3.59900000      -0.66850000      -1.03560000
H        0.35900000       1.16400000       1.52960000
H       -0.59580000       2.17290000       0.42900000
H        1.30550000       2.26640000      -1.19190000
H        2.36310000       1.90380000       0.19250000
H       -0.46660000      -0.79390000       0.17430000
H       -0.76900000       0.28860000      -1.20520000
H        2.91690000      -1.48790000      -3.12470000
H        1.01980000      -2.47740000      -1.17340000
H        2.71040000      -2.98160000      -0.81090000
H        2.35750000      -0.92830000       0.93410000
H        4.40330000      -1.36770000      -0.80000000
H        3.98280000       0.34730000      -1.15440000
