19
Properties=species:S:1:pos:R:3 gdb_23199=T pbc="F F F"
C       -0.34280000       1.50330000       0.03630000
C        0.13980000       0.04600000       0.06540000
C        0.78350000      -0.36200000      -1.22880000
C        0.04900000      -0.93770000      -2.39130000
N        0.99470000      -1.81700000      -1.69480000
C        2.35310000      -1.42270000      -2.22940000
C        2.16560000      -0.03000000      -1.66440000
N        2.89960000       0.95870000      -1.36730000
O        4.19850000       0.78860000      -1.88580000
H        0.49310000       2.18320000      -0.15120000
H       -1.08720000       1.65750000      -0.75170000
H       -0.79940000       1.77860000       0.99140000
H        0.86220000      -0.08850000       0.87890000
H       -0.69730000      -0.63180000       0.26700000
H       -0.99020000      -1.20400000      -2.21930000
H        0.27320000      -0.61250000      -3.40540000
H        3.15150000      -1.97510000      -1.72780000
H        2.45780000      -1.53450000      -3.31290000
H        4.64690000       1.58200000      -1.57460000
