18
Properties=species:S:1:pos:R:3 gdb_14474=T pbc="F F F"
C       -0.11150000       1.53450000       0.02130000
C       -0.09290000       0.02970000       0.02830000
C        0.32640000      -0.79030000      -1.22920000
C       -0.56700000      -1.90810000      -0.70130000
C       -0.42830000      -1.89090000       0.85270000
C        0.54950000      -0.77330000       1.20010000
C       -1.36110000      -0.95520000       0.15480000
O       -2.69980000      -0.75050000       0.36910000
H        0.90480000       1.93940000      -0.05940000
H       -0.68940000       1.92600000      -0.82380000
H       -0.55520000       1.93110000       0.94090000
H       -0.07180000      -0.35440000      -2.15130000
H        1.39790000      -0.98740000      -1.35270000
H       -0.90690000      -2.80540000      -1.20280000
H       -0.68830000      -2.77150000       1.42580000
H        1.62620000      -0.97060000       1.13410000
H        0.31660000      -0.32680000       2.17150000
H       -3.10580000      -0.47680000      -0.46120000
