14
Properties=species:S:1:pos:R:3 gdb_5439=T pbc="F F F"
N        0.05630000       1.37630000       0.14400000
C       -0.01270000      -0.01490000       0.03310000
C       -1.11160000      -0.86640000       0.01060000
C       -0.59290000      -2.20780000      -0.01710000
C        0.77000000      -2.12640000      -0.02260000
N        1.11380000      -0.78400000       0.01010000
C       -2.45490000      -0.43630000       0.00740000
C       -3.59530000      -0.04060000       0.00250000
H        0.52750000       1.81580000      -0.64050000
H       -0.87950000       1.76060000       0.21310000
H       -1.18320000      -3.10960000      -0.04700000
H        1.52960000      -2.88940000      -0.05440000
H        2.04530000      -0.42080000       0.11410000
H       -4.60280000       0.29260000       0.00350000
