18
Properties=species:S:1:pos:R:3 gdb_22664=T pbc="F F F"
O        0.03210000       1.41020000       0.00730000
C       -0.02000000      -0.00180000       0.00260000
C       -1.43870000      -0.46250000       0.01220000
C       -2.53400000       0.31280000       0.02250000
C       -3.73960000      -0.50820000       0.02950000
C       -3.32890000      -1.97330000       0.02320000
C       -1.77800000      -1.93700000       0.01100000
N       -4.97160000      -0.16490000       0.03920000
O       -5.11490000       1.23810000       0.04340000
H        0.95480000       1.67950000      -0.00150000
H        0.48560000      -0.42520000      -0.88480000
H        0.49980000      -0.43160000       0.87860000
H       -2.54140000       1.39150000       0.02520000
H       -3.71910000      -2.49120000       0.90340000
H       -3.73320000      -2.48790000      -0.85250000
H       -1.35810000      -2.43990000      -0.86960000
H       -1.34410000      -2.44460000       0.88210000
H       -6.07190000       1.34000000       0.05060000
