23
Properties=species:S:1:pos:R:3 gdb_88452=T pbc="F F F"
C       -1.81710000       0.12830000       1.82240000
N       -0.88420000      -0.69990000       1.07160000
C       -0.21350000      -0.06420000      -0.05570000
C        0.56040000      -0.41860000       1.16960000
C        1.17700000       0.62110000       2.08570000
C        1.38630000       2.01600000       1.52240000
C        0.96640000       0.48150000       3.56550000
N        2.27350000       0.21460000       2.98980000
C        2.74920000      -1.15920000       3.02800000
H       -1.51790000       1.18310000       1.92320000
H       -2.78840000       0.09750000       1.31820000
H       -1.94720000      -0.28420000       2.82770000
H       -0.11800000      -0.66240000      -0.95890000
H       -0.41720000       0.98940000      -0.23680000
H        1.13970000      -1.33630000       1.10830000
H        0.43600000       2.52140000       1.32060000
H        1.95210000       2.61810000       2.23730000
H        1.95090000       1.97910000       0.58470000
H        0.88290000       1.36630000       4.19340000
H        0.38170000      -0.37230000       3.90680000
H        1.95700000      -1.92410000       3.00410000
H        3.42950000      -1.33920000       2.18890000
H        3.31560000      -1.29680000       3.95480000
