19
Properties=species:S:1:pos:R:3 gdb_92282=T pbc="F F F"
C        0.09490000       1.60360000      -0.04190000
C        0.13140000       0.09360000       0.01670000
O        0.72840000      -0.43100000      -1.14890000
C        1.21330000      -1.72240000      -0.80200000
C        2.55540000      -1.99920000      -1.50330000
C        3.57840000      -1.75450000      -0.42010000
C        3.02900000      -1.53850000       0.77330000
C        1.52460000      -1.58380000       0.71850000
O        0.92870000      -0.34230000       1.10410000
H        1.11050000       1.98880000      -0.15950000
H       -0.51680000       1.93150000      -0.88640000
H       -0.33590000       2.00060000       0.88060000
H       -0.88840000      -0.32470000       0.12690000
H        0.45150000      -2.48350000      -1.01430000
H        2.60520000      -3.02820000      -1.88040000
H        2.67880000      -1.33710000      -2.36730000
H        4.64450000      -1.76410000      -0.62200000
H        3.56320000      -1.34230000       1.69540000
H        1.09730000      -2.39260000       1.32660000
