18
Properties=species:S:1:pos:R:3 gdb_107519=T pbc="F F F"
C        0.09720000       1.42380000       0.32500000
N       -0.00240000       0.04350000      -0.15470000
C       -1.28850000      -0.52610000      -0.11430000
C       -1.87840000      -1.04290000       1.17860000
C       -1.75000000      -1.97170000       0.01140000
N       -2.92030000      -1.75310000      -0.87170000
C       -2.43460000      -0.36110000      -1.16290000
C       -3.42310000       0.69760000      -0.96040000
N       -4.17650000       1.55660000      -0.78310000
H        1.14450000       1.73740000       0.29900000
H       -0.49670000       2.14770000      -0.25390000
H       -0.24390000       1.46560000       1.36350000
H        0.42360000      -0.05510000      -1.06940000
H       -1.13190000      -1.17060000       1.95480000
H       -2.86610000      -0.73790000       1.51150000
H       -1.19640000      -2.90200000       0.02170000
H       -2.86110000      -2.31670000      -1.71380000
H       -2.01500000      -0.26660000      -2.17080000
