15
Properties=species:S:1:pos:R:3 gdb_4061=T pbc="F F F"
O       -0.16830000       1.31480000      -0.06890000
N        0.02320000      -0.08120000       0.00300000
C       -1.08860000      -0.68740000      -0.02510000
C       -2.55870000      -0.27400000      -0.01490000
C       -2.89240000      -1.77840000       0.09800000
O       -3.84930000      -2.29100000       0.94810000
C       -2.32770000      -2.53990000      -1.05570000
C       -1.39480000      -2.13690000       0.08950000
H        0.73510000       1.64340000      -0.01370000
H       -2.80140000       0.27140000       0.90170000
H       -2.94610000       0.27550000      -0.87830000
H       -4.66660000      -2.41120000       0.45210000
H       -2.56720000      -3.59900000      -1.05270000
H       -2.21950000      -2.09670000      -2.04230000
H       -0.84230000      -2.87690000       0.65290000
