19
Properties=species:S:1:pos:R:3 gdb_110397=T pbc="F F F"
C        0.18130000       1.31210000       0.19300000
O       -0.32020000       0.07620000      -0.26620000
C        0.46610000      -0.50260000      -1.27050000
C        1.70080000      -1.33870000      -0.86540000
C        0.80670000      -2.53720000      -0.38490000
C        1.61180000      -3.52680000      -1.25050000
O        1.03000000      -4.72650000      -1.68780000
C        1.53420000      -2.25770000      -2.12560000
C        0.07160000      -1.93150000      -1.64210000
H        1.17200000       1.20800000       0.66020000
H        0.26190000       2.04590000      -0.62430000
H       -0.52070000       1.69190000       0.93900000
H        0.61700000       0.20240000      -2.10430000
H        2.65040000      -1.03030000      -0.42700000
H        0.37970000      -2.66560000       0.60860000
H        2.60730000      -3.79190000      -0.88060000
H        0.13810000      -4.53630000      -1.99860000
H        1.94060000      -2.06600000      -3.11970000
H       -0.86450000      -2.27100000      -2.08820000
