17
Properties=species:S:1:pos:R:3 gdb_33944=T pbc="F F F"
C       -0.02310000      -1.18770000      -0.10450000
C        0.03190000       0.00860000      -0.00080000
C        0.07090000       1.43280000       0.16140000
O        0.28600000       2.22220000      -1.03190000
C        1.28880000       2.26420000      -0.01410000
C        1.21770000       3.46700000       0.91420000
C       -0.14480000       3.38530000       1.61110000
C       -1.40990000       3.44220000       0.79450000
C       -0.83460000       2.10170000       1.18260000
H       -0.06410000      -2.24370000      -0.20790000
H        2.25020000       1.84400000      -0.30140000
H        2.02310000       3.39000000       1.65350000
H        1.36670000       4.40390000       0.36580000
H       -0.19710000       3.71540000       2.64250000
H       -2.31220000       3.75600000       1.30810000
H       -1.34800000       3.72700000      -0.24820000
H       -1.35780000       1.45860000       1.87820000
