16
Properties=species:S:1:pos:R:3 gdb_70237=T pbc="F F F"
C       -0.11360000       1.55190000       0.08470000
C        0.13160000       0.07390000      -0.00890000
O       -0.71690000      -0.77900000       0.80230000
C        0.68950000      -0.79810000       1.04760000
C        1.41560000      -1.96680000       0.39860000
C        1.16140000      -1.72770000      -1.08560000
C        0.48150000      -0.59040000      -1.30360000
C        1.58770000      -2.64330000      -2.08420000
N        1.95930000      -3.40380000      -2.87550000
H        0.74400000       2.11400000      -0.29890000
H       -0.99350000       1.83540000      -0.50250000
H       -0.29000000       1.84310000       1.12250000
H        1.00400000      -0.42160000       2.01740000
H        2.48750000      -1.95700000       0.62660000
H        1.01890000      -2.93260000       0.72890000
H        0.19810000      -0.20700000      -2.27570000
