18
Properties=species:S:1:pos:R:3 gdb_93567=T pbc="F F F"
C       -0.05890000       1.59550000      -0.07890000
C       -0.00600000       0.07870000       0.05960000
N        0.75560000      -0.54920000      -1.12430000
H        0.14210000      -0.75700000      -1.91280000
H        1.44880000       0.12770000      -1.44540000
C        1.49590000      -1.78650000      -0.58110000
C        1.58550000      -1.47930000       0.88280000
C        0.77500000      -0.47650000       1.21920000
C        2.52810000      -2.36500000       1.73090000
O        2.60610000      -2.07140000       2.92720000
O        3.05120000      -3.25200000       1.01810000
H        0.94860000       2.02500000      -0.06110000
H       -0.57430000       1.91240000      -0.99200000
H       -0.60650000       2.00850000       0.77200000
H       -1.02430000      -0.33200000       0.00050000
H        0.89080000      -2.66900000      -0.80510000
H        2.46260000      -1.89070000      -1.07150000
H        0.65850000      -0.10220000       2.22790000
