18
Properties=species:S:1:pos:R:3 gdb_32207=T pbc="F F F"
C       -0.07650000       1.57350000       0.07060000
C        0.06220000       0.04070000       0.05760000
C        0.74350000      -0.48400000      -1.18150000
C        2.05950000      -0.92520000      -1.19410000
C        2.64650000      -1.39000000      -2.37350000
C        1.87370000      -1.40000000      -3.52290000
N        0.60010000      -0.98540000      -3.54940000
C        0.07100000      -0.54640000      -2.41740000
O       -1.21840000      -0.13330000      -2.46410000
H        0.90460000       2.05660000       0.02290000
H       -0.66600000       1.91500000      -0.78420000
H       -0.57620000       1.90830000       0.98500000
H        0.62960000      -0.28390000       0.93700000
H       -0.93470000      -0.40660000       0.13820000
H        2.63090000      -0.90850000      -0.27010000
H        3.67260000      -1.73720000      -2.39320000
H        2.27840000      -1.75400000      -4.46740000
H       -1.49940000      -0.26110000      -3.38100000
