15
Properties=species:S:1:pos:R:3 gdb_127792=T pbc="F F F"
C       -0.01800000       1.44480000       0.03620000
N       -0.00530000      -0.00970000       0.09090000
N       -0.09740000      -0.70990000      -1.04700000
N       -0.07280000      -1.98410000      -0.74740000
C        0.03990000      -2.10580000       0.59450000
C        0.08830000      -0.84570000       1.16240000
C        0.19410000      -0.35650000       2.55480000
N        0.42320000      -1.32670000       3.48850000
O        0.06070000       0.82000000       2.84780000
H        0.89360000       1.84710000       0.47960000
H       -0.08470000       1.71300000      -1.01770000
H       -0.87010000       1.83440000       0.59310000
H        0.06090000      -3.07470000       1.06900000
H        0.74530000      -2.24320000       3.23000000
H        0.59250000      -1.01500000       4.43140000
