18
Properties=species:S:1:pos:R:3 gdb_64984=T pbc="F F F"
C       -0.04710000       1.46810000      -0.74980000
C       -0.06570000       0.12620000      -0.05430000
C        0.88490000      -0.94140000      -0.48730000
N        1.05620000      -0.28140000       0.81490000
C       -1.44700000      -0.30610000       0.42340000
O       -2.44730000       0.01810000      -0.17150000
N       -1.39340000      -1.08760000       1.56550000
C       -2.42690000      -1.71040000       2.25400000
N       -3.63750000      -1.72550000       1.87750000
H        0.93200000       1.66260000      -1.19830000
H       -0.80830000       1.48890000      -1.53220000
H       -0.27410000       2.27590000      -0.04610000
H        0.59360000      -1.98650000      -0.43600000
H        1.57430000      -0.69770000      -1.29110000
H        1.80060000       0.40950000       0.77960000
H       -0.46130000      -1.15410000       1.95790000
H       -2.04020000      -2.18920000       3.16340000
H       -4.19540000      -2.24730000       2.55200000
