12
Properties=species:S:1:pos:R:3 gdb_8606=T pbc="F F F"
C       -0.02430000       1.54880000       0.00130000
C        0.00600000      -0.01120000       0.00840000
C        0.71430000      -0.51060000       1.19460000
C        1.29780000      -0.88410000       2.17290000
C       -1.38470000      -0.52150000       0.00580000
N       -2.48020000      -0.88430000       0.01590000
C        0.68840000      -0.48670000      -1.21740000
N        1.23550000      -0.82190000      -2.17670000
H        1.00000000       1.92380000      -0.00590000
H       -0.55300000       1.90510000      -0.88440000
H       -0.53490000       1.89800000       0.89990000
H        1.81300000      -1.22910000       3.03640000
