10
Properties=species:S:1:pos:R:3 gdb_216=T pbc="F F F"
C       -0.01310000       1.30300000       0.00980000
C        1.18410000       2.01610000       0.00180000
N        2.37130000       1.40720000      -0.01300000
C        2.34130000       0.07320000      -0.01970000
C        1.14410000      -0.64000000      -0.01170000
N       -0.04310000      -0.03100000       0.00310000
H       -0.96960000       1.81950000       0.02190000
H        1.18540000       3.10330000       0.00750000
H        3.29780000      -0.44340000      -0.03180000
H        1.14270000      -1.72710000      -0.01740000
