23
Properties=species:S:1:pos:R:3 gdb_38971=T pbc="F F F"
C        0.04460000       1.47250000       0.09510000
C        1.37220000       0.77350000      -0.02420000
C        1.72500000       0.15490000       1.33350000
C        0.41770000      -0.70710000       1.25910000
C        0.66920000      -2.21160000       1.08030000
C       -0.37950000      -2.86700000       0.16980000
C       -0.34580000      -2.23210000      -1.22860000
C       -0.69200000      -0.73400000      -1.16820000
C        0.05620000      -0.01950000      -0.07250000
H       -0.24970000       1.93050000       1.03860000
H       -0.27280000       2.02710000      -0.78370000
H        2.07120000       1.00690000      -0.81950000
H        2.62610000      -0.46300000       1.32590000
H        1.79970000       0.86630000       2.16330000
H       -0.30710000      -0.54210000       2.06700000
H        1.65440000      -2.36230000       0.61850000
H        0.70700000      -2.70530000       2.05810000
H       -0.19170000      -3.94440000       0.09970000
H       -1.38270000      -2.75190000       0.60430000
H        0.65880000      -2.36360000      -1.65260000
H       -1.04080000      -2.74460000      -1.90290000
H       -0.51040000      -0.25130000      -2.13650000
H       -1.77100000      -0.63470000      -0.97620000
