20
Properties=species:S:1:pos:R:3 gdb_17383=T pbc="F F F"
C       -0.15260000       1.34240000       0.13740000
C        1.17100000       0.72530000      -0.21610000
C        1.87400000       0.23470000       1.05480000
C        0.64820000      -0.67740000       1.36830000
C        0.81560000      -2.21630000       1.47800000
C       -0.34550000      -2.23460000       2.50830000
C       -0.13970000      -0.70780000       2.70530000
C       -0.03800000      -0.15700000       0.09640000
H       -0.28150000       1.85970000       1.08630000
H       -0.69790000       1.78910000      -0.68810000
H        1.64960000       0.90880000      -1.17040000
H        2.77180000      -0.35730000       0.85550000
H        2.12090000       1.00500000       1.79500000
H        0.69980000      -2.79940000       0.55970000
H        1.77280000      -2.48120000       1.93930000
H       -1.30630000      -2.45850000       2.03660000
H       -0.23260000      -2.87810000       3.38370000
H        0.51000000      -0.49330000       3.56030000
H       -1.02860000      -0.07460000       2.77530000
H       -0.64020000      -0.75790000      -0.57650000
