20
Properties=species:S:1:pos:R:3 gdb_113004=T pbc="F F F"
C        0.10950000       1.43920000      -0.03910000
C        0.04040000      -0.07410000       0.18450000
C       -1.38460000      -0.60350000       0.11850000
N       -2.04140000      -0.47660000      -1.20790000
C       -2.58440000      -1.84820000      -1.13380000
C       -2.38040000      -2.67090000      -2.39440000
O       -3.08450000      -3.59400000      -2.71180000
C       -1.60920000      -2.14840000       0.04320000
O       -0.51490000      -2.91550000      -0.40560000
H        1.14280000       1.79730000      -0.01150000
H       -0.30900000       1.70050000      -1.01610000
H       -0.45310000       1.98420000       0.72760000
H        0.63550000      -0.59330000      -0.57310000
H        0.46790000      -0.32690000       1.16500000
H       -1.98290000      -0.17460000       0.93780000
H       -2.73130000       0.26030000      -1.29530000
H       -3.63290000      -1.93790000      -0.82350000
H       -1.51760000      -2.33690000      -3.00840000
H       -2.07620000      -2.59950000       0.92540000
H        0.08100000      -3.06520000       0.33460000
