16
Properties=species:S:1:pos:R:3 gdb_126776=T pbc="F F F"
C        0.05460000       1.52800000      -0.11660000
C        0.07110000      -0.00200000      -0.12130000
N        0.73390000      -0.55980000      -1.28420000
N        0.09760000      -0.74700000      -2.44560000
C        1.06280000      -1.08950000      -3.28780000
O        0.86500000      -1.40330000      -4.58280000
C        2.28890000      -1.07860000      -2.59430000
O        3.50490000      -1.37960000      -3.08950000
N        2.05960000      -0.72940000      -1.33580000
H        1.07370000       1.92410000      -0.12090000
H       -0.47210000       1.91010000      -0.99530000
H       -0.45560000       1.89460000       0.77940000
H        0.59830000      -0.38940000       0.75390000
H       -0.94530000      -0.40340000      -0.11920000
H       -0.07990000      -1.31880000      -4.75900000
H        4.14140000      -1.28100000      -2.37110000
