15
Properties=species:S:1:pos:R:3 gdb_97529=T pbc="F F F"
N       -0.49070000       0.49430000      -1.02720000
H       -1.24340000      -0.03700000      -1.45680000
H        0.26190000      -0.16900000      -0.86150000
H       -0.15070000       1.13150000      -1.74250000
C       -1.01980000       1.73210000       2.06130000
C       -0.25280000       1.22640000       3.00320000
C        0.48840000       0.73190000       3.88930000
C        1.28080000       0.20040000       4.82430000
C        1.22460000       0.57870000       6.19370000
C        1.19080000       0.88700000       7.35690000
C        2.23940000      -0.80000000       4.44870000
N        3.01310000      -1.60730000       4.14690000
H       -0.93220000       1.40230000       1.02260000
H       -1.75920000       2.49190000       2.30070000
H        1.15670000       1.16260000       8.38210000
