19
Properties=species:S:1:pos:R:3 gdb_90504=T pbc="F F F"
C        1.61780000       0.59720000      -1.89580000
C        1.85260000      -0.73950000      -1.22630000
O        3.25140000      -1.05750000      -0.93490000
C        2.88220000      -1.50580000       0.36990000
C        2.42790000      -0.34160000       1.21880000
C        3.04130000       1.00690000       1.11670000
O        2.96700000       1.83660000       1.99370000
C        1.46480000      -1.03730000       0.22520000
C        0.14860000      -1.60070000       0.67400000
H        2.18060000       0.64850000      -2.83340000
H        0.55470000       0.70550000      -2.13600000
H        1.91490000       1.43980000      -1.26860000
H        1.45470000      -1.54320000      -1.86250000
H        3.33570000      -2.41400000       0.75060000
H        2.16180000      -0.60140000       2.24060000
H        3.61840000       1.19650000       0.19100000
H       -0.62750000      -0.82730000       0.69920000
H       -0.18760000      -2.39370000      -0.00340000
H        0.22040000      -2.02700000       1.67890000
