16
Properties=species:S:1:pos:R:3 gdb_109647=T pbc="F F F"
O        0.20910000       1.11400000      -0.55250000
C        0.00380000       0.02510000       0.33090000
C       -1.41080000      -0.52410000       0.23300000
C       -1.87800000      -1.14200000      -1.04810000
O       -0.91180000      -1.26280000      -2.05980000
C       -1.64010000      -2.04300000       0.16450000
O       -0.54000000      -2.89240000       0.10670000
C       -2.77920000      -2.60270000       0.84790000
N       -3.71620000      -3.01510000       1.38660000
H        0.14250000       0.76100000      -1.44680000
H        0.72860000      -0.78050000       0.16570000
H        0.17130000       0.41120000       1.34000000
H       -2.17180000       0.03940000       0.76300000
H       -2.89370000      -0.96490000      -1.38850000
H       -1.29560000      -1.74960000      -2.79720000
H       -0.20730000      -2.84420000      -0.80130000
