21
Properties=species:S:1:pos:R:3 gdb_40092=T pbc="F F F"
C       -0.31970000       1.39590000       0.12560000
C        1.11440000       0.94480000      -0.03280000
C        0.00690000      -0.06530000       0.04060000
C       -0.17130000      -1.13130000       1.12950000
C       -0.49630000      -2.17910000       0.02260000
C       -1.95770000      -2.61880000      -0.06640000
O       -2.65970000      -1.50200000      -0.59980000
C       -1.81880000      -0.94900000      -1.60680000
C       -0.38620000      -1.05290000      -1.06980000
H       -0.63200000       1.79190000       1.08670000
H       -0.80160000       1.86860000      -0.72480000
H        1.59730000       1.10810000      -0.99180000
H        1.77920000       1.03650000       0.82090000
H        0.72570000      -1.34810000       1.71670000
H       -1.00380000      -0.94630000       1.81590000
H        0.20620000      -3.01000000      -0.05060000
H       -2.05640000      -3.49280000      -0.73260000
H       -2.40920000      -2.86550000       0.89920000
H       -1.91350000      -1.52130000      -2.54510000
H       -2.15370000       0.07570000      -1.79130000
H        0.35100000      -1.18600000      -1.86500000
