16
Properties=species:S:1:pos:R:3 gdb_3139=T pbc="F F F"
O        0.23640000       1.33430000       0.12080000
C        0.03040000      -0.04190000      -0.17210000
C       -1.41550000      -0.43160000      -0.06170000
C       -2.02240000      -0.93540000       1.19210000
N       -1.86310000      -1.88060000       0.07040000
C       -2.99670000      -1.56280000      -0.87400000
C       -2.50430000      -0.10830000      -1.08650000
H       -0.08470000       1.48890000       1.01560000
H        0.38480000      -0.17960000      -1.19940000
H        0.63260000      -0.69890000       0.47450000
H       -1.35940000      -1.15590000       2.02430000
H       -3.02510000      -0.62430000       1.48140000
H       -2.92670000      -2.19140000      -1.76340000
H       -3.98520000      -1.69530000      -0.42180000
H       -3.18510000       0.71080000      -0.83930000
H       -2.10390000       0.06120000      -2.08830000
