17
Properties=species:S:1:pos:R:3 gdb_43389=T pbc="F F F"
O        0.21260000      -0.07300000      -0.49980000
C        0.01600000       1.09780000      -0.21330000
C       -1.27030000       1.75550000      -0.22030000
C       -1.38410000       3.08120000       0.05760000
N       -0.35680000       3.92100000       0.33420000
C        1.03360000       3.51640000       0.30040000
C        1.72000000       3.41370000       1.68890000
N        1.40700000       1.96890000       1.70290000
C        1.19570000       1.96990000       0.23230000
H       -2.15320000       1.17340000      -0.44920000
H       -2.35930000       3.56060000       0.06700000
H       -0.55940000       4.89570000       0.47560000
H        1.57520000       4.09340000      -0.45500000
H        2.79050000       3.65850000       1.62640000
H        1.26870000       3.98720000       2.50630000
H        2.13610000       1.34990000       2.03810000
H        2.07950000       1.68260000      -0.35120000
