20
Properties=species:S:1:pos:R:3 gdb_89746=T pbc="F F F"
C       -0.70850000       1.21390000      -0.03200000
C        0.13920000      -0.04930000      -0.05200000
C        1.52690000       0.00150000      -0.77940000
C        2.14080000      -0.71810000       0.42680000
C        3.05050000      -1.86090000       0.49190000
O        3.45610000      -0.54570000       0.91370000
C        0.88650000      -0.47400000       1.23150000
C        0.80420000       0.12520000       2.58140000
N        0.44550000      -1.29180000       2.35400000
H       -0.12970000       2.07070000       0.32840000
H       -1.07790000       1.45410000      -1.03460000
H       -1.58240000       1.10060000       0.62010000
H       -0.45080000      -0.89190000      -0.43190000
H        1.59840000      -0.49450000      -1.74950000
H        1.90470000       1.02440000      -0.87040000
H        2.92990000      -2.58760000       1.29290000
H        3.53010000      -2.22500000      -0.41590000
H        1.71810000       0.27610000       3.14840000
H        0.01080000       0.84070000       2.78200000
H       -0.56730000      -1.39540000       2.33440000
