19
Properties=species:S:1:pos:R:3 gdb_104535=T pbc="F F F"
O        0.34400000       1.24500000      -0.41460000
C        0.12040000      -0.04830000       0.10810000
C       -1.34600000      -0.49680000       0.03800000
C       -2.23620000       0.16830000       1.10340000
C       -2.29410000       1.62710000       1.03700000
C       -2.34590000       2.82850000       0.98720000
C       -1.88760000      -0.52500000      -1.41060000
O       -1.82050000      -1.96830000      -1.44940000
C       -1.49800000      -2.03600000      -0.04950000
H       -0.19160000       1.86870000       0.09060000
H        0.72480000      -0.72480000      -0.50570000
H        0.48250000      -0.13960000       1.14680000
H       -3.25590000      -0.22700000       1.01470000
H       -1.87870000      -0.13020000       2.09880000
H       -2.40940000       3.88810000       0.94340000
H       -2.91680000      -0.15950000      -1.52610000
H       -1.24950000      -0.05370000      -2.16390000
H       -0.59400000      -2.62760000       0.14290000
H       -2.32450000      -2.44970000       0.54600000
