20
Properties=species:S:1:pos:R:3 gdb_47588=T pbc="F F F"
O        0.11070000       0.01430000       0.19550000
C        0.03900000       1.20640000      -0.04830000
C       -1.29590000       1.95590000      -0.08610000
C       -1.20740000       3.49070000      -0.21280000
C        0.01790000       4.03990000       0.53740000
C        1.25080000       3.44190000      -0.11930000
C        2.58940000       3.22400000       0.64160000
C        2.48600000       1.71490000       0.26620000
N        1.14230000       1.97520000      -0.27160000
H       -1.90200000       1.52550000      -0.88980000
H       -1.79920000       1.67630000       0.84630000
H       -1.12920000       3.77720000      -1.26910000
H       -2.13000000       3.94490000       0.16210000
H        0.05020000       5.13380000       0.49820000
H       -0.02510000       3.74730000       1.59480000
H        1.40880000       3.92140000      -1.09570000
H        3.45510000       3.76370000       0.25540000
H        2.50290000       3.40370000       1.71570000
H        3.19820000       1.38070000      -0.49520000
H        2.48090000       0.99350000       1.08700000
