18
Properties=species:S:1:pos:R:3 gdb_53080=T pbc="F F F"
C       -0.09260000       1.44730000       0.02080000
C       -0.02330000      -0.00500000       0.00190000
C        0.04940000      -1.21020000      -0.01330000
C        0.06870000      -2.62340000      -0.03350000
C        1.12920000      -3.44150000      -0.14060000
C        0.69230000      -4.88570000      -0.16780000
N       -0.77890000      -4.87320000       0.00110000
C       -1.23780000      -4.33220000       1.28520000
C       -1.17930000      -3.45230000       0.08510000
H        0.34650000       1.85350000       0.93920000
H        0.45040000       1.88320000      -0.82540000
H       -1.12950000       1.79650000      -0.03330000
H        2.16320000      -3.12330000      -0.18920000
H        0.93950000      -5.36680000      -1.12450000
H        1.16170000      -5.49220000       0.61800000
H       -2.18750000      -4.73580000       1.62580000
H       -0.50480000      -4.14640000       2.06790000
H       -2.08100000      -3.13870000      -0.43280000
