23
Properties=species:S:1:pos:R:3 gdb_111850=T pbc="F F F"
C        0.11180000       1.42240000       0.21450000
C       -0.24620000      -0.02420000      -0.14730000
C        0.58190000      -0.56680000      -1.29170000
C        2.00310000      -1.10860000      -1.13050000
C        2.48230000      -1.52530000       0.25940000
C        1.76130000      -2.87290000       0.47530000
O        0.60120000      -2.84980000      -0.35970000
C        0.86940000      -2.03620000      -1.48700000
C        0.69320000      -2.74200000      -2.80430000
H        1.15770000       1.50660000       0.52870000
H       -0.02600000       2.09080000      -0.64280000
H       -0.51630000       1.79430000       1.03040000
H       -0.14200000      -0.67070000       0.72890000
H       -1.30620000      -0.07830000      -0.42710000
H        0.44250000      -0.01900000      -2.22320000
H        2.74430000      -0.82500000      -1.86940000
H        3.56920000      -1.64140000       0.28610000
H        2.21410000      -0.79820000       1.03250000
H        2.41420000      -3.71180000       0.18830000
H        1.42830000      -3.03660000       1.50460000
H       -0.33950000      -3.08650000      -2.92520000
H        0.92610000      -2.07050000      -3.63610000
H        1.35000000      -3.61600000      -2.87190000
