15
Properties=species:S:1:pos:R:3 gdb_50253=T pbc="F F F"
O       -0.58080000       0.56810000      -0.38690000
C        0.38230000       0.73870000       0.31460000
C        1.34210000       1.89410000       0.16150000
C        0.95180000       3.05220000      -0.79880000
C        1.04450000       4.04350000       0.37840000
O       -0.23620000       4.21200000       1.06530000
C        0.06650000       3.23200000       1.98480000
O       -0.59510000       2.86030000       2.89810000
C        1.42670000       2.91140000       1.36300000
H        0.62830000       0.03660000       1.14180000
H        2.33690000       1.48220000      -0.03930000
H        1.68060000       3.23430000      -1.59030000
H       -0.04510000       2.96280000      -1.23220000
H        1.56670000       4.99260000       0.27730000
H        2.29360000       2.88720000       2.01880000
