11
Properties=species:S:1:pos:R:3 gdb_23718=T pbc="F F F"
F       -0.00870000       0.02590000       0.00370000
C       -0.01090000       1.36040000       0.01050000
C       -1.21580000       2.04650000       0.03000000
N       -1.27060000       3.38170000       0.03760000
C       -0.13190000       4.03490000       0.02570000
F       -0.21310000       5.36260000       0.03370000
C        1.13140000       3.44750000       0.00600000
C        1.18890000       2.06130000      -0.00180000
H       -2.15440000       1.50040000       0.03970000
H        2.02280000       4.06160000      -0.00270000
H        2.13200000       1.52780000      -0.01710000
