15
Properties=species:S:1:pos:R:3 gdb_77229=T pbc="F F F"
O        0.16880000       1.38760000       0.07330000
C       -0.00030000       0.01660000       0.00000000
C       -1.43960000      -0.60470000       0.04720000
O       -1.18350000      -1.38000000      -1.12940000
C        0.06740000      -0.70430000      -1.39260000
C        0.00160000       0.21420000      -2.51840000
C       -0.06610000       1.03400000      -3.39660000
C       -1.76260000      -1.41240000       1.27750000
O       -1.71530000      -2.61110000       1.34870000
H       -0.16890000       1.77840000      -0.74480000
H        0.67240000      -0.43850000       0.72970000
H       -2.21710000       0.15960000      -0.10720000
H        0.88580000      -1.42110000      -1.51660000
H       -0.11510000       1.72270000      -4.20480000
H       -2.02560000      -0.77630000       2.15540000
