16
Properties=species:S:1:pos:R:3 gdb_65417=T pbc="F F F"
C        0.11730000       1.50220000      -0.22260000
C       -0.03550000       0.03180000       0.10280000
O        1.15330000      -0.76980000       0.12280000
C        0.44600000      -0.61290000       1.34930000
C        1.12740000       0.14410000       2.47760000
C        1.99220000      -0.72770000       3.26510000
C        2.69190000      -1.46530000       3.90420000
C       -1.16810000      -0.60400000      -0.55940000
N       -2.08230000      -1.07900000      -1.08300000
H        0.99260000       1.92220000       0.27340000
H        0.23920000       1.63230000      -1.30150000
H       -0.77310000       2.05660000       0.08830000
H       -0.08030000      -1.51120000       1.67210000
H        1.70970000       0.97680000       2.07240000
H        0.35180000       0.57770000       3.12310000
H        3.31850000      -2.11000000       4.46970000
