18
Properties=species:S:1:pos:R:3 gdb_88414=T pbc="F F F"
C       -0.86970000       1.14760000       0.07520000
C       -0.13980000      -0.17270000       0.11240000
N        1.23240000      -0.19890000      -0.41800000
C        1.00560000      -0.47730000       1.01430000
C        1.60810000       0.51180000       1.98650000
C        1.44070000       0.09120000       3.44560000
O        0.81840000      -0.87540000       3.79900000
C        3.09300000       0.79550000       1.72980000
O        3.74530000       1.54130000       2.41290000
H       -0.18740000       1.98740000       0.22810000
H       -1.34470000       1.29020000      -0.90100000
H       -1.65300000       1.18430000       0.83990000
H       -0.76710000      -1.03190000      -0.12170000
H        1.41200000      -1.06000000      -0.92620000
H        1.08040000      -1.50930000       1.34760000
H        1.12430000       1.49620000       1.91560000
H        1.96010000       0.75720000       4.16350000
H        3.52630000       0.25220000       0.86620000
