16
Properties=species:S:1:pos:R:3 gdb_77268=T pbc="F F F"
N       -0.06190000       1.50600000      -0.22050000
C        0.01260000       0.07560000      -0.11380000
C       -1.29550000      -0.63650000       0.07590000
N       -2.47230000       0.14290000       0.20810000
C       -3.65560000      -0.39260000       0.62040000
O       -3.82310000      -1.55540000       0.91770000
C       -0.57260000      -0.72790000      -1.27770000
C       -1.09630000      -0.03650000      -2.41730000
N       -1.51560000       0.51690000      -3.34290000
H        0.17760000       1.94500000       0.66190000
H        0.57060000       1.86100000      -0.92970000
H        0.89020000      -0.37680000       0.34870000
H       -1.33570000      -1.55160000       0.65250000
H       -2.39900000       1.12200000      -0.02950000
H       -4.45470000       0.37140000       0.66570000
H       -0.09110000      -1.67260000      -1.50570000
