20
Properties=species:S:1:pos:R:3 gdb_63998=T pbc="F F F"
C        0.13280000       1.43120000       0.04160000
C       -0.08230000      -0.08890000      -0.01900000
C       -1.57220000      -0.43360000      -0.01620000
C        0.68910000      -0.71430000      -1.22630000
C        1.95650000      -1.25630000      -0.59830000
C        3.09660000      -1.76710000      -1.30900000
O        3.20620000      -1.80110000      -2.52280000
C        1.81170000      -1.21980000       0.74950000
N        0.59860000      -0.73150000       1.14160000
H        1.20040000       1.67090000       0.02530000
H       -0.33920000       1.91910000      -0.81710000
H       -0.30530000       1.85750000       0.95160000
H       -2.06110000      -0.01820000      -0.90310000
H       -1.71760000      -1.51700000      -0.01620000
H       -2.07420000      -0.02070000       0.86610000
H        0.10650000      -1.52020000      -1.68970000
H        0.88600000       0.02220000      -2.01050000
H        3.91750000      -2.14010000      -0.65160000
H        2.52370000      -1.55760000       1.49400000
H        0.49660000      -0.31280000       2.05460000
