14
Properties=species:S:1:pos:R:3 gdb_129627=T pbc="F F F"
N       -0.22160000       1.35410000      -0.35680000
C       -0.09350000       0.00900000      -0.09120000
C       -1.01780000      -0.99890000      -0.03680000
C       -2.50720000      -1.02280000      -0.13860000
C       -2.92360000      -0.28800000      -1.40990000
O       -3.04030000       0.91060000      -1.46070000
O       -0.34560000      -2.15110000       0.16580000
N        1.01330000      -1.82530000       0.26250000
N        1.13690000      -0.57430000       0.10660000
H        0.47020000       1.93810000       0.08820000
H       -1.16330000       1.71580000      -0.31710000
H       -2.85320000      -2.05930000      -0.15580000
H       -2.96530000      -0.50790000       0.71470000
H       -3.07300000      -0.92050000      -2.30900000
