21
Properties=species:S:1:pos:R:3 gdb_86076=T pbc="F F F"
C        0.06160000       1.58470000       0.03160000
C        0.00850000       0.05550000      -0.01070000
C        0.91440000      -0.52860000      -1.15530000
C        2.27970000      -0.72110000      -0.48220000
C        3.56950000      -0.64870000      -1.23270000
C        2.06660000      -0.83980000       0.82590000
C        2.50320000      -0.35390000       2.18560000
O        1.15920000       0.18940000       2.37700000
C        0.65610000      -0.59620000       1.23510000
H        1.09220000       1.93990000       0.12560000
H       -0.36500000       2.00830000      -0.88330000
H       -0.49800000       1.97470000       0.88610000
H       -1.03170000      -0.26450000      -0.13260000
H        0.50570000      -1.46710000      -1.55390000
H        0.98700000       0.16110000      -2.00550000
H        3.66800000      -1.48380000      -1.93840000
H        3.62710000       0.26990000      -1.83050000
H        4.43110000      -0.67890000      -0.56000000
H        2.72020000      -1.12620000       2.93560000
H        3.28160000       0.41680000       2.21900000
H        0.07400000      -1.44470000       1.62000000
