14
Properties=species:S:1:pos:R:3 gdb_45640=T pbc="F F F"
O        0.17520000      -0.00430000       0.00010000
C        0.00090000       1.17130000       0.00930000
C       -1.26250000       2.02410000       0.03280000
N       -0.79980000       3.40650000       0.03420000
C        0.46530000       3.34350000       0.01550000
C        1.46590000       4.46070000       0.00790000
C        0.88320000       5.79290000       0.02220000
C        0.43710000       6.90640000       0.03360000
O        1.05200000       2.08960000      -0.00040000
H       -1.88810000       1.81020000      -0.84040000
H       -1.86230000       1.79980000       0.92140000
H        2.13060000       4.31740000       0.87070000
H        2.10770000       4.32610000      -0.87350000
H        0.02830000       7.88640000       0.04400000
