20
Properties=species:S:1:pos:R:3 gdb_17352=T pbc="F F F"
C       -0.11750000       1.58430000      -0.10650000
C       -0.05820000       0.08420000       0.05520000
N        1.23640000      -0.57240000      -0.19190000
C        0.64970000      -0.62340000       1.16110000
C        1.40770000       0.07430000       2.24330000
N        0.82280000       0.01930000       3.59690000
C        2.11850000      -0.63380000       3.34690000
C        2.18150000      -2.13410000       3.50540000
H        0.81160000       2.05830000       0.21740000
H       -0.27260000       1.84930000      -1.15800000
H       -0.94520000       2.00660000       0.47350000
H       -0.94410000      -0.43200000      -0.31500000
H        1.11140000      -1.45990000      -0.67020000
H        0.19380000      -1.55860000       1.47730000
H        1.86100000       1.01120000       1.92840000
H        0.94650000       0.90610000       4.07690000
H        3.00380000      -0.11640000       3.71700000
H        1.25350000      -2.60980000       3.18080000
H        3.01010000      -2.55300000       2.92420000
H        2.33770000      -2.40100000       4.55630000
