17
Properties=species:S:1:pos:R:3 gdb_67936=T pbc="F F F"
C       -0.18900000       1.50590000       0.20540000
C        0.06610000       0.02550000      -0.01970000
C       -1.17170000      -0.91760000       0.15040000
C       -0.43760000      -1.62410000       1.31270000
O       -0.76390000      -2.45690000       2.10250000
C        0.85250000      -0.80150000       1.08010000
N        1.88920000      -1.56880000       0.37650000
C        1.79810000      -1.23090000      -0.85630000
N        0.89990000      -0.23850000      -1.19390000
H        0.75390000       2.05840000       0.24130000
H       -0.80270000       1.93070000      -0.59730000
H       -0.72170000       1.66820000       1.14790000
H       -2.10680000      -0.43180000       0.44560000
H       -1.37510000      -1.57500000      -0.70090000
H        1.25600000      -0.28150000       1.95440000
H        2.43260000      -1.65330000      -1.63070000
H        0.51010000      -0.19360000      -2.12330000
