13
Properties=species:S:1:pos:R:3 gdb_21860=T pbc="F F F"
O       -0.09740000       1.31680000       0.21850000
C        0.01590000      -0.01030000       0.05460000
C        1.18520000      -0.69350000      -0.05720000
C        1.15970000      -2.11220000      -0.22870000
N        0.06640000      -2.80910000      -0.28630000
N       -1.08060000      -2.10330000      -0.17230000
C       -1.26230000      -0.72900000      -0.00100000
N       -2.38570000      -0.12020000       0.10070000
H        0.78360000       1.70890000       0.24430000
H        2.13830000      -0.17460000      -0.01780000
H        2.08250000      -2.67380000      -0.31970000
H       -1.91050000      -2.67530000      -0.22120000
H       -3.17000000      -0.77220000       0.04100000
