17
Properties=species:S:1:pos:R:3 gdb_33797=T pbc="F F F"
N        0.04850000      -1.16010000      -0.05260000
C        0.01620000      -0.00630000      -0.00390000
C       -0.01020000       1.44850000       0.08810000
C       -0.90730000       2.13060000       1.15400000
C       -1.11000000       3.13580000       0.00190000
C        0.02880000       4.14780000      -0.06190000
N        1.24090000       3.48950000       0.43730000
C        1.38780000       2.08620000       0.04700000
O       -0.79480000       2.08000000      -0.96310000
H       -1.80440000       1.54430000       1.34970000
H       -0.43250000       2.47090000       2.07260000
H       -2.09450000       3.57220000      -0.17180000
H        0.09810000       4.49650000      -1.10540000
H       -0.18720000       5.01660000       0.57240000
H        2.07340000       4.01930000       0.21590000
H        2.06420000       1.58650000       0.75010000
H        1.77330000       1.92850000      -0.97310000
