18
Properties=species:S:1:pos:R:3 gdb_18648=T pbc="F F F"
O       -0.19780000       1.43700000      -0.21130000
C       -0.10270000       0.04520000      -0.02710000
C       -0.45920000      -0.63430000       1.27290000
C       -1.17880000       0.16070000       2.35860000
C       -2.37280000       0.84940000       1.66390000
C       -2.65040000       0.05810000       0.35380000
O       -3.07510000       0.87450000      -0.72310000
C       -1.37650000      -0.73750000       0.06350000
H        0.50860000       1.86340000       0.28470000
H        0.70390000      -0.41400000      -0.59800000
H        0.16640000      -1.46620000       1.58070000
H       -1.52520000      -0.54020000       3.12610000
H       -0.52340000       0.87810000       2.86640000
H       -3.25780000       0.88910000       2.30430000
H       -2.12280000       1.87610000       1.39070000
H       -3.47120000      -0.65050000       0.50990000
H       -2.33620000       1.46520000      -0.91520000
H       -1.46870000      -1.64230000      -0.52670000
