22
Properties=species:S:1:pos:R:3 gdb_118087=T pbc="F F F"
C        0.10820000       1.53760000      -0.22670000
C        0.00590000       0.03760000      -0.05100000
C        1.15500000      -0.80340000      -0.47160000
N        0.84960000      -0.62290000       0.96430000
C       -1.40070000      -0.57650000      -0.10860000
O       -1.33620000      -1.96440000       0.17920000
C       -2.38910000       0.13340000       0.82860000
C       -3.76360000      -0.52290000       0.82680000
O       -4.60910000       0.24410000       1.67500000
H        1.15520000       1.85340000      -0.27700000
H       -0.37890000       1.85720000      -1.15500000
H       -0.36810000       2.07550000       0.59890000
H        0.98300000      -1.80830000      -0.84160000
H        2.02820000      -0.30040000      -0.87840000
H        1.49060000       0.03770000       1.39450000
H       -1.76890000      -0.49870000      -1.14140000
H       -0.71630000      -2.03460000       0.92290000
H       -1.99260000       0.13010000       1.85190000
H       -2.50990000       1.18150000       0.53260000
H       -4.15750000      -0.55320000      -0.20340000
H       -3.67430000      -1.56090000       1.17170000
H       -5.45290000      -0.21170000       1.74300000
