19
Properties=species:S:1:pos:R:3 gdb_78011=T pbc="F F F"
C       -0.73070000       1.22460000      -0.29150000
C       -0.37080000      -0.22750000      -0.52290000
C        0.52960000      -0.79960000      -1.58430000
C        1.81540000       0.00720000      -1.79360000
C        1.83990000       1.32040000      -2.54810000
O        2.02040000       0.12380000      -0.35140000
C        0.96920000      -0.79810000      -0.10540000
C        1.14110000      -1.92810000       0.81520000
O        2.11660000      -2.13670000       1.49260000
H       -1.34190000       1.62010000      -1.10910000
H       -1.30570000       1.32250000       0.63460000
H        0.16630000       1.83760000      -0.19360000
H       -1.18100000      -0.92580000      -0.31510000
H        0.23600000      -1.64970000      -2.18690000
H        2.59440000      -0.65840000      -2.18830000
H        2.79960000       1.82140000      -2.38540000
H        1.73890000       1.12710000      -3.62140000
H        1.03950000       1.99470000      -2.24210000
H        0.25150000      -2.60080000       0.83520000
