22
Properties=species:S:1:pos:R:3 gdb_101855=T pbc="F F F"
C       -0.02580000       1.36350000       0.07200000
N        0.01960000      -0.06280000      -0.16850000
C       -1.04420000      -0.71140000       0.00060000
O       -1.07440000      -2.04620000      -0.18010000
C       -2.35420000      -2.67160000      -0.07480000
C       -2.14390000      -4.18090000       0.01350000
C       -1.34310000      -4.57430000       1.25940000
C       -3.49590000      -4.89450000      -0.04190000
O       -3.25190000      -6.29030000      -0.10620000
H        0.69430000       1.62860000       0.85480000
H        0.27970000       1.89980000      -0.83380000
H       -1.01780000       1.73740000       0.37640000
H       -2.00640000      -0.27080000       0.30890000
H       -2.87850000      -2.30240000       0.81930000
H       -2.96070000      -2.41390000      -0.95460000
H       -1.58210000      -4.48550000      -0.87880000
H       -0.36560000      -4.08740000       1.26030000
H       -1.87350000      -4.27450000       2.17220000
H       -1.20230000      -5.65630000       1.29140000
H       -4.08870000      -4.63530000       0.85200000
H       -4.06330000      -4.55240000      -0.92300000
H       -4.09750000      -6.74670000      -0.08040000
