25
Properties=species:S:1:pos:R:3 gdb_104777=T pbc="F F F"
C        0.82730000      -0.19940000      -1.30380000
C       -0.02250000      -0.03920000      -0.03790000
C        0.60220000      -0.64390000       1.22730000
C        1.93960000       0.01220000       1.61520000
C        1.87960000       1.52110000       1.87740000
C       -0.35120000      -0.76400000       2.47780000
C       -0.11660000      -2.27820000       2.50170000
C       -0.56720000      -2.89720000       1.21040000
C        0.75640000      -2.18400000       1.25040000
H        1.07110000      -1.25270000      -1.48090000
H        0.29070000       0.16910000      -2.18370000
H        1.77010000       0.35330000      -1.24070000
H       -0.23650000       1.02320000       0.13420000
H       -0.99820000      -0.50850000      -0.20800000
H        2.31460000      -0.49560000       2.51310000
H        2.68060000      -0.19020000       0.83120000
H        2.84430000       1.88750000       2.24240000
H        1.63720000       2.08560000       0.97180000
H        1.12590000       1.76880000       2.63280000
H        0.04340000      -0.24450000       3.35430000
H       -1.39030000      -0.44960000       2.32920000
H        0.04050000      -2.87300000       3.39330000
H       -0.49920000      -3.97980000       1.16390000
H       -1.41660000      -2.48800000       0.66900000
H        1.68280000      -2.70470000       1.03250000
