17
Properties=species:S:1:pos:R:3 gdb_107317=T pbc="F F F"
C        0.04450000       1.32370000       0.29990000
O       -0.01250000       0.00110000      -0.23190000
C       -1.26440000      -0.57310000      -0.16860000
C       -1.76300000      -1.15380000       1.15070000
C       -1.42390000      -2.05670000      -0.02900000
C       -2.60010000      -2.41600000      -0.87750000
C       -3.14540000      -1.34290000      -1.47020000
C       -2.35230000      -0.12650000      -1.14460000
O       -2.50000000       0.99290000      -1.57950000
H        1.08090000       1.65180000       0.19640000
H       -0.61590000       1.99890000      -0.25100000
H       -0.23100000       1.33270000       1.36390000
H       -1.04250000      -1.11920000       1.96180000
H       -2.80310000      -1.04670000       1.43870000
H       -0.56450000      -2.71140000       0.04490000
H       -2.97910000      -3.43020000      -0.93940000
H       -4.02420000      -1.31550000      -2.10040000
