20
Properties=species:S:1:pos:R:3 gdb_82139=T pbc="F F F"
C       -0.27830000       1.61890000       0.06270000
C       -0.01550000       0.11930000       0.13900000
C        0.34180000      -0.63940000      -1.14210000
C        1.66440000      -0.25070000      -1.66020000
N        1.61680000      -1.22450000      -0.55110000
C        1.32410000      -0.45340000       0.71680000
C        2.42710000       0.46970000       1.23810000
C        3.66340000      -0.31200000       1.63640000
O        4.21140000      -0.21830000       2.70510000
H        0.52140000       2.15790000      -0.45350000
H       -1.21010000       1.81580000      -0.47840000
H       -0.38010000       2.05170000       1.06350000
H       -0.85580000      -0.36270000       0.64630000
H       -0.34560000      -1.25500000      -1.71390000
H        1.99240000      -0.70690000      -2.58910000
H        2.05070000       0.75180000      -1.49910000
H        1.10830000      -1.19790000       1.48860000
H        2.72610000       1.19520000       0.47030000
H        2.08000000       1.03340000       2.10950000
H        4.04320000      -1.00410000       0.85340000
