21
Properties=species:S:1:pos:R:3 gdb_119235=T pbc="F F F"
C        0.42550000       1.45770000      -0.30010000
O        0.42860000       0.05330000      -0.19650000
C        0.51220000      -0.40020000       1.14110000
C        0.42580000      -1.90370000       1.12840000
C        1.63860000      -2.73170000       0.71110000
C        1.19530000      -2.77950000       2.13080000
C        2.02190000      -2.20360000       3.25890000
C       -0.89540000      -2.44920000       0.70930000
O       -1.13920000      -3.62530000       0.57150000
H        1.34960000       1.89950000       0.10570000
H        0.35180000       1.70680000      -1.36130000
H       -0.42900000       1.90620000       0.23130000
H        1.44710000      -0.05460000       1.60640000
H       -0.31700000       0.02620000       1.73420000
H        1.43100000      -3.58470000       0.07520000
H        2.53520000      -2.17050000       0.46840000
H        0.62870000      -3.66880000       2.39420000
H        2.64250000      -1.36410000       2.93400000
H        1.39360000      -1.86140000       4.08820000
H        2.69670000      -2.97230000       3.65100000
H       -1.67800000      -1.67940000       0.53100000
