13
Properties=species:S:1:pos:R:3 gdb_12659=T pbc="F F F"
O        0.20710000       1.28540000       0.44930000
C       -0.00480000      -0.03370000       0.04480000
C       -1.49080000      -0.40650000      -0.14700000
N       -1.43170000      -1.41280000      -1.20500000
C       -0.30250000      -1.41590000      -1.97770000
O       -0.06710000      -2.08500000      -2.95430000
C        0.59460000      -0.34950000      -1.31760000
O        1.54210000       0.21070000      -1.79930000
H        0.97890000       1.59890000      -0.04460000
H        0.43850000      -0.75400000       0.75640000
H       -1.94830000      -0.81500000       0.75740000
H       -2.04920000       0.48710000      -0.45020000
H       -2.22160000      -1.98830000      -1.45400000
