14
Properties=species:S:1:pos:R:3 gdb_13474=T pbc="F F F"
N       -0.08530000       1.25340000       0.33500000
C        0.09390000      -0.01860000      -0.11780000
O        1.13970000      -0.45530000      -0.55470000
C       -1.18610000      -0.84700000      -0.06190000
C       -1.03940000      -2.36770000       0.19980000
N       -1.82700000      -2.15590000       1.42820000
C       -1.93930000      -0.80190000       1.29150000
O       -2.39340000       0.07920000       1.97930000
H        0.73250000       1.83710000       0.41550000
H       -0.89030000       1.46460000       0.90980000
H       -1.82570000      -0.58980000      -0.91000000
H       -1.52160000      -3.02430000      -0.52840000
H       -0.00760000      -2.68180000       0.37020000
H       -2.04990000      -2.76450000       2.20180000
