18
Properties=species:S:1:pos:R:3 gdb_5313=T pbc="F F F"
C        0.05180000       1.26480000       0.51460000
N       -0.03710000       0.07390000      -0.33010000
C        1.21560000      -0.66280000      -0.37430000
C       -1.16740000      -0.72950000      -0.10280000
C       -1.32450000      -2.00150000       0.40780000
C       -2.71580000      -2.31440000       0.34970000
C       -3.36460000      -1.23020000      -0.18340000
N       -2.41540000      -0.26920000      -0.45600000
H        0.82110000       1.93580000       0.11880000
H       -0.90060000       1.79960000       0.51350000
H        0.30510000       1.02410000       1.56190000
H        1.52210000      -1.05780000       0.61070000
H        1.12280000      -1.50190000      -1.06740000
H        2.01060000       0.00050000      -0.72980000
H       -0.53730000      -2.62960000       0.79330000
H       -3.18150000      -3.23160000       0.67620000
H       -4.40780000      -1.05180000      -0.38740000
H       -2.57430000       0.58800000      -0.95580000
