17
Properties=species:S:1:pos:R:3 gdb_109160=T pbc="F F F"
C        0.03360000       1.42840000       0.04780000
N       -0.07070000      -0.01620000       0.09210000
C       -1.25990000      -0.65430000       0.02320000
N       -2.43050000      -0.11820000       0.07520000
C       -3.45660000      -1.16800000      -0.05840000
C       -2.74850000      -2.53160000       0.05580000
O       -3.19150000      -3.49040000      -0.87320000
C       -1.29020000      -2.14220000      -0.14930000
O       -0.37510000      -2.87280000      -0.44760000
H        1.06040000       1.72110000       0.27560000
H       -0.24670000       1.83680000      -0.93240000
H       -0.63480000       1.86550000       0.79390000
H        0.73090000      -0.57910000      -0.14650000
H       -4.23090000      -1.02240000       0.70040000
H       -3.94150000      -1.09500000      -1.03900000
H       -2.83670000      -2.90420000       1.09250000
H       -2.45370000      -4.09780000      -1.01820000
