23
Properties=species:S:1:pos:R:3 gdb_101633=T pbc="F F F"
C        0.06330000       1.60120000       0.13130000
C       -0.36760000       0.36340000      -0.65810000
C       -1.83670000      -0.03280000      -0.44140000
C       -2.26410000      -1.13890000      -1.41970000
N       -2.03080000      -0.38480000       0.97480000
C       -3.40730000      -0.47260000       1.45240000
C       -3.43450000      -1.05620000       2.87360000
C       -4.01790000       0.87110000       1.44730000
N       -4.52030000       1.91160000       1.44020000
H        1.12520000       1.81590000      -0.02250000
H       -0.50480000       2.48390000      -0.18200000
H       -0.11130000       1.45710000       1.20010000
H       -0.21010000       0.52890000      -1.73070000
H        0.26850000      -0.49270000      -0.38930000
H       -2.45680000       0.85500000      -0.62300000
H       -3.30810000      -1.43470000      -1.27570000
H       -2.16000000      -0.80450000      -2.45680000
H       -1.63910000      -2.03150000      -1.29300000
H       -1.56390000      -1.26400000       1.17740000
H       -4.05530000      -1.09950000       0.81370000
H       -4.45440000      -1.08210000       3.26320000
H       -3.04690000      -2.07980000       2.85660000
H       -2.81200000      -0.45480000       3.53980000
