16
Properties=species:S:1:pos:R:3 gdb_35194=T pbc="F F F"
C       -0.08060000      -1.19970000       0.00960000
C       -0.02870000       0.00140000       0.00320000
C        0.02660000       1.43560000      -0.03830000
O        0.60330000       2.11440000       1.10530000
C        1.31560000       2.15390000      -0.10660000
C        2.76530000       1.68390000      -0.22360000
N        3.16550000       3.00040000      -0.85320000
C        2.36980000       3.10960000      -2.08540000
C        1.70600000       3.43360000      -0.80250000
H       -0.12740000      -2.26070000       0.02400000
H       -0.85630000       1.93140000      -0.44030000
H        3.23700000       1.57380000       0.75480000
H        2.97550000       0.80590000      -0.84170000
H        2.67280000       3.93940000      -2.71660000
H        2.09360000       2.20430000      -2.62300000
H        1.40210000       4.43200000      -0.50770000
