21
Properties=species:S:1:pos:R:3 gdb_113268=T pbc="F F F"
C       -0.31530000       1.47140000      -0.65200000
C        0.00970000       0.22160000       0.17680000
C       -1.23160000      -0.58300000       0.47870000
O       -1.81720000      -1.32670000      -0.60190000
C       -1.32490000      -2.05500000       0.53910000
C       -0.13820000      -2.96130000       0.28950000
C       -2.43310000      -2.67780000       1.38320000
C       -3.12420000      -3.81320000       0.65220000
O       -3.30390000      -4.91340000       1.10790000
H        0.58890000       2.05050000      -0.86010000
H       -0.76950000       1.19050000      -1.60670000
H       -1.01840000       2.12540000      -0.12510000
H        0.74020000      -0.39310000      -0.35600000
H        0.47080000       0.51320000       1.12940000
H       -1.97140000      -0.03350000       1.06860000
H        0.57130000      -2.51260000      -0.40610000
H        0.38010000      -3.18300000       1.22860000
H       -0.46820000      -3.91500000      -0.13630000
H       -2.05000000      -3.05330000       2.33680000
H       -3.19360000      -1.91320000       1.58720000
H       -3.47110000      -3.54640000      -0.37040000
