19
Properties=species:S:1:pos:R:3 gdb_101398=T pbc="F F F"
C       -0.18780000       1.52050000       0.06190000
C       -0.01920000      -0.00110000      -0.02690000
C        0.79560000      -0.40780000      -1.25910000
O        0.09700000       0.03170000      -2.41370000
C        0.61330000      -0.60250000       1.22670000
O        1.89050000      -0.01630000       1.60270000
C        1.45250000       0.35380000       2.92550000
C        0.05760000      -0.19530000       2.60160000
O       -0.99450000      -0.26610000       3.15750000
H        0.77730000       2.00120000       0.25060000
H       -0.58410000       1.90340000      -0.88000000
H       -0.87730000       1.79990000       0.86450000
H       -1.00870000      -0.46920000      -0.12130000
H        1.79710000       0.04410000      -1.19660000
H        0.92520000      -1.50240000      -1.26930000
H        0.66750000      -0.09240000      -3.17740000
H        0.70410000      -1.69480000       1.12400000
H        1.98790000      -0.18010000       3.72130000
H        1.50550000       1.43400000       3.10960000
