16
Properties=species:S:1:pos:R:3 gdb_24269=T pbc="F F F"
C       -0.01550000       1.47590000       0.11000000
C        1.28840000       0.73460000       0.02560000
O        2.01570000       0.43340000       1.20910000
C        1.20130000      -0.41130000       1.92470000
C        0.05630000      -0.76010000       1.26160000
N       -0.65980000      -1.59080000       2.08630000
C        0.05130000      -1.76480000       3.25430000
C        1.22430000      -1.02730000       3.19550000
C       -0.03420000      -0.04770000      -0.02440000
H       -0.32030000       1.90270000       1.05860000
H       -0.27990000       2.05790000      -0.76710000
H        1.94120000       0.86810000      -0.82780000
H       -1.54680000      -2.01550000       1.88380000
H       -0.31880000      -2.41560000       4.02980000
H        1.97900000      -0.97020000       3.96280000
H       -0.40520000      -0.51140000      -0.93230000
