17
Properties=species:S:1:pos:R:3 gdb_43293=T pbc="F F F"
O        0.01930000       0.04270000       0.35830000
C       -0.00180000       1.21340000       0.06990000
C       -1.23060000       2.08870000      -0.07690000
C       -0.94980000       3.30290000      -0.58730000
C        0.49990000       3.35440000      -1.00390000
C        1.80310000       3.95680000      -0.36040000
C        1.40810000       3.27680000       0.96300000
C        1.11150000       2.21250000      -0.16890000
C        2.50250000       2.59550000      -0.75970000
H       -2.21000000       1.71900000       0.20410000
H       -1.68670000       4.07450000      -0.78870000
H        0.57850000       3.23040000      -2.09150000
H        2.21520000       4.95810000      -0.49680000
H        2.21970000       3.01580000       1.64550000
H        0.54280000       3.67410000       1.49430000
H        2.64690000       2.40510000      -1.82550000
H        3.38520000       2.32500000      -0.17680000
