20
Properties=species:S:1:pos:R:3 gdb_10335=T pbc="F F F"
C       -0.11170000       1.31680000       0.33280000
O       -0.29510000      -0.04910000       0.01760000
C        0.56970000      -0.52000000      -0.99820000
C        1.96630000      -0.70970000      -0.41180000
O        3.00020000      -0.59480000      -1.01660000
C        0.02320000      -1.86910000      -1.52210000
C       -1.45490000      -1.73450000      -1.91250000
C        0.86040000      -2.39030000      -2.69790000
H        0.90430000       1.52990000       0.69740000
H       -0.30450000       1.95950000      -0.53910000
H       -0.82550000       1.56300000       1.12200000
H        0.63150000       0.19680000      -1.83300000
H        1.93900000      -0.99650000       0.66610000
H        0.09240000      -2.58690000      -0.69240000
H       -1.84750000      -2.70260000      -2.23900000
H       -2.05540000      -1.37750000      -1.07480000
H       -1.57340000      -1.02900000      -2.74350000
H        1.91870000      -2.49160000      -2.44620000
H        0.49010000      -3.36940000      -3.01630000
H        0.78840000      -1.71270000      -3.55650000
