14
Properties=species:S:1:pos:R:3 gdb_44191=T pbc="F F F"
O       -0.02110000       0.02810000       0.13450000
C        0.00010000       1.21880000       0.01850000
N       -1.00420000       2.17950000      -0.04060000
C       -0.11640000       3.33150000      -0.06570000
C        0.43910000       3.77670000       1.32560000
O        1.49070000       2.77060000       1.25200000
C        1.07730000       2.34400000      -0.06320000
C        0.96380000       5.12760000       1.38350000
C        1.37810000       6.25560000       1.40190000
H       -1.97610000       2.11250000       0.23100000
H       -0.32000000       4.09570000      -0.81260000
H       -0.23950000       3.58100000       2.16400000
H        1.89000000       2.28540000      -0.78620000
H        1.74960000       7.25050000       1.43410000
