15
Properties=species:S:1:pos:R:3 gdb_49776=T pbc="F F F"
O       -0.84900000       1.32980000       0.89880000
C        0.06520000       1.00200000       0.19090000
C        1.32590000       1.83740000      -0.00420000
N        2.50170000       0.97950000      -0.19790000
C        3.15400000       1.47890000      -1.17380000
N        2.66200000       2.63770000      -1.75410000
C        1.26990000       2.78020000      -1.27490000
C        0.29480000       2.38620000      -2.29140000
C       -0.49400000       2.07050000      -3.14190000
H        0.06550000       0.04920000      -0.37930000
H        1.45340000       2.45510000       0.89150000
H        4.09150000       1.06870000      -1.53850000
H        2.82010000       2.77780000      -2.74300000
H        1.07430000       3.81080000      -0.96820000
H       -1.20100000       1.78980000      -3.88370000
