21
Properties=species:S:1:pos:R:3 gdb_93736=T pbc="F F F"
C       -0.27690000       1.40140000       0.07240000
C        0.11820000      -0.07240000       0.02370000
C        0.91530000      -0.49350000      -1.22490000
C        1.48000000      -1.87730000      -0.85530000
C        1.65390000      -1.87880000       0.69260000
O        2.98600000      -2.07690000       1.14530000
C        1.04700000      -0.51950000       1.16250000
C        0.86380000      -2.99730000       1.36170000
O       -0.18370000      -3.43140000       0.95770000
H        0.60840000       2.04740000       0.03280000
H       -0.91990000       1.66590000      -0.77360000
H       -0.82310000       1.64030000       0.99100000
H       -0.79000000      -0.68830000       0.06810000
H        0.30710000      -0.51130000      -2.13380000
H        1.72710000       0.22710000      -1.39530000
H        0.76630000      -2.66020000      -1.12680000
H        2.43270000      -2.11130000      -1.33690000
H        3.51550000      -1.32640000       0.85830000
H        1.87600000       0.19440000       1.27200000
H        0.55350000      -0.58180000       2.13780000
H        1.33400000      -3.35950000       2.30190000
