20
Properties=species:S:1:pos:R:3 gdb_70684=T pbc="F F F"
C       -0.08260000       1.52910000       0.03310000
C        0.04340000       0.01950000       0.00410000
C       -0.80640000      -0.79450000       0.96420000
C        0.68440000      -0.72360000       1.16320000
C        1.54090000      -1.95520000       0.87240000
C        2.10260000      -1.91690000      -0.54910000
N        1.03590000      -1.62720000      -1.50410000
C        0.19340000      -0.54900000      -1.38510000
O       -0.41610000      -0.09950000      -2.33940000
H        0.84200000       2.01410000      -0.29920000
H       -0.88570000       1.84890000      -0.63530000
H       -0.30340000       1.88080000       1.04540000
H       -1.45480000      -0.24260000       1.63660000
H       -1.21970000      -1.73340000       0.60980000
H        1.02800000      -0.09460000       1.97890000
H        2.37100000      -2.01390000       1.58330000
H        0.94840000      -2.86800000       0.99870000
H        2.90500000      -1.16610000      -0.61480000
H        2.54320000      -2.88270000      -0.81430000
H        1.16850000      -1.91780000      -2.46280000
