17
Properties=species:S:1:pos:R:3 gdb_52884=T pbc="F F F"
C       -0.57400000       1.63760000      -0.10280000
C       -0.31060000       0.20760000      -0.05800000
C       -0.10260000      -0.97770000      -0.00540000
C        0.16550000      -2.39490000      -0.00630000
C        0.35650000      -3.13650000       1.25620000
O       -0.86750000      -3.24200000       0.53350000
C        0.79840000      -2.90940000      -1.27270000
C        2.25650000      -2.99100000      -1.41690000
O        1.46530000      -4.16280000      -1.19940000
H       -0.00170000       2.17290000       0.66260000
H       -0.30460000       2.05900000      -1.07730000
H       -1.63580000       1.84630000       0.06760000
H        0.98160000      -4.02610000       1.24130000
H        0.30150000      -2.59070000       2.19620000
H        0.19100000      -2.76700000      -2.16650000
H        2.70700000      -2.90640000      -2.40400000
H        2.89160000      -2.69680000      -0.58300000
