20
Properties=species:S:1:pos:R:3 gdb_73040=T pbc="F F F"
C       -0.23350000       1.55200000       0.12330000
C       -0.09190000       0.05930000       0.06640000
C       -1.26340000      -0.94850000       0.12890000
C       -0.34930000      -1.93770000       0.91620000
C        0.79140000      -0.90860000       0.83300000
N        1.10180000      -0.51780000      -0.52650000
C        1.06580000      -1.46230000      -1.64570000
C        2.24230000      -2.32620000      -1.64310000
C        3.20130000      -3.04980000      -1.63010000
H        0.74400000       2.02150000       0.25840000
H       -0.66930000       1.94170000      -0.80500000
H       -0.88790000       1.85400000       0.94820000
H       -2.08610000      -0.57320000       0.74210000
H       -1.67840000      -1.28440000      -0.82690000
H       -0.69460000      -2.09480000       1.94010000
H       -0.15180000      -2.91470000       0.46490000
H        1.53890000      -0.72250000       1.59730000
H        0.16560000      -2.09490000      -1.66600000
H        1.04640000      -0.86990000      -2.56880000
H        4.05210000      -3.68490000      -1.62510000
