16
Properties=species:S:1:pos:R:3 gdb_9669=T pbc="F F F"
O        0.01440000       0.70680000       0.78600000
C       -0.32280000       0.26290000      -0.51430000
C       -1.57740000      -0.58880000      -0.52920000
C       -1.65380000      -1.80840000      -1.39550000
C       -1.48720000      -1.97100000       0.10590000
O       -0.24070000      -2.30760000       0.65270000
C       -2.66390000      -2.43410000       0.89160000
O       -3.81310000      -2.26340000       0.56380000
H        0.25220000      -0.08260000       1.28590000
H       -0.48830000       1.16290000      -1.11580000
H        0.50560000      -0.29310000      -0.97510000
H       -2.51010000      -0.07120000      -0.32830000
H       -2.61550000      -2.10000000      -1.80210000
H       -0.78490000      -2.04920000      -1.99990000
H        0.00830000      -3.18980000       0.35840000
H       -2.38580000      -2.95570000       1.83470000
