21
Properties=species:S:1:pos:R:3 gdb_89464=T pbc="F F F"
C       -0.66340000       1.30720000      -0.05120000
C        0.08100000      -0.02030000      -0.02740000
C        1.42410000      -0.15100000      -0.82160000
C        2.11730000      -0.72850000       0.44310000
C        2.89930000      -2.01040000       0.37000000
O        2.79680000       0.31980000       1.18290000
C        1.64380000       0.55880000       2.02220000
C        0.81300000      -0.49640000       1.26220000
O        0.23510000      -1.52840000       2.00830000
H       -0.00500000       2.14470000       0.20120000
H       -1.07280000       1.50320000      -1.04800000
H       -1.50230000       1.31540000       0.65510000
H       -0.59630000      -0.82940000      -0.32290000
H        1.37800000      -0.82390000      -1.68140000
H        1.86730000       0.79820000      -1.13210000
H        3.82230000      -1.85640000      -0.20030000
H        3.16650000      -2.35900000       1.37130000
H        2.31610000      -2.79190000      -0.12650000
H        1.83200000       0.26670000       3.06290000
H        1.31290000       1.60390000       1.99090000
H       -0.65990000      -1.26820000       2.25220000
