15
Properties=species:S:1:pos:R:3 gdb_129412=T pbc="F F F"
N       -0.01140000       1.33160000      -0.03280000
C        0.00500000       0.01130000       0.03560000
N        1.17560000      -0.69380000       0.09530000
H        1.13350000      -1.68260000      -0.09550000
H        1.99370000      -0.24230000      -0.28210000
N       -1.15590000      -0.64120000       0.09150000
C       -2.41690000      -0.00150000       0.13420000
N       -3.55240000      -0.68270000       0.22050000
C       -4.42650000       0.36050000       0.22760000
N       -3.87270000       1.56860000       0.15130000
N       -2.52880000       1.32720000       0.08720000
H        0.84850000       1.85030000       0.02040000
H       -1.01000000       1.75770000       0.00630000
H       -1.18090000      -1.64800000       0.13670000
H       -5.49690000       0.22220000       0.29000000
