15
Properties=species:S:1:pos:R:3 gdb_3364=T pbc="F F F"
O        0.04700000       1.38230000       0.07810000
C       -0.04210000      -0.00530000       0.00870000
C       -1.35730000      -0.73510000       0.00460000
C       -2.59910000       0.08940000      -0.34010000
C       -2.34030000       0.56540000      -1.75540000
C       -1.19720000       0.07450000      -2.24910000
C       -0.46270000      -0.74900000      -1.24890000
H       -0.43470000       1.74240000      -0.67850000
H        0.76130000      -0.45790000       0.58140000
H       -1.46680000      -1.61590000       0.62700000
H       -3.51800000      -0.50700000      -0.28000000
H       -2.72630000       0.93160000       0.35360000
H       -3.01480000       1.23390000      -2.27900000
H       -0.81060000       0.26900000      -3.24340000
H        0.10500000      -1.61680000      -1.56700000
