18
Properties=species:S:1:pos:R:3 gdb_69934=T pbc="F F F"
O        0.02990000       1.45910000      -0.21850000
C        0.02720000       0.08380000      -0.13110000
C       -0.14630000      -0.75790000      -1.35170000
C       -1.09610000      -0.94620000      -0.17890000
N       -0.51680000      -1.69830000       0.94180000
C        0.02360000      -3.04760000       0.67550000
C        1.52260000      -2.85050000       0.62470000
C        1.86090000      -1.57590000       0.82610000
C        0.63610000      -0.73950000       1.03160000
H       -0.33950000       1.81490000       0.59810000
H       -0.58740000      -0.21560000      -2.18240000
H        0.58070000      -1.51490000      -1.63120000
H       -2.17010000      -0.83050000      -0.27470000
H       -0.26690000      -3.75280000       1.46710000
H       -0.37390000      -3.45130000      -0.26750000
H        2.21380000      -3.66880000       0.45330000
H        2.86870000      -1.17940000       0.84710000
H        0.64620000      -0.16890000       1.97190000
