23
Properties=species:S:1:pos:R:3 gdb_103607=T pbc="F F F"
C        1.78780000      -0.63470000       1.64280000
C        0.79140000      -0.16020000       0.57930000
C        0.93660000      -0.84280000      -0.78810000
C        2.29300000      -0.56770000      -1.45310000
C        0.49870000      -2.34800000      -0.88390000
C       -0.45610000      -2.02380000      -2.07820000
C       -1.89120000      -2.53440000      -2.07990000
C       -0.22890000      -0.53800000      -1.75520000
O       -0.81900000       0.46700000      -2.03690000
H        1.72210000      -1.71720000       1.79840000
H        2.82070000      -0.39940000       1.36980000
H        1.58410000      -0.15020000       2.60270000
H       -0.22960000      -0.32620000       0.94520000
H        0.88500000       0.92290000       0.43440000
H        3.11080000      -0.99580000      -0.86540000
H        2.34560000      -1.00560000      -2.45550000
H        2.46560000       0.50910000      -1.55010000
H        1.29490000      -3.06640000      -1.08740000
H       -0.05330000      -2.67420000       0.00250000
H        0.02870000      -2.26120000      -3.03380000
H       -2.38760000      -2.31490000      -1.12890000
H       -2.46880000      -2.05320000      -2.87490000
H       -1.92740000      -3.61690000      -2.23810000
