15
Properties=species:S:1:pos:R:3 gdb_30301=T pbc="F F F"
O        0.08000000       1.47780000       0.18080000
C        0.05100000       0.07130000      -0.03430000
C        0.62560000      -0.75520000       1.18170000
O       -0.48120000      -1.44870000       1.85570000
C       -1.48430000      -1.29830000       0.98650000
C       -1.31720000      -0.53150000      -0.11450000
C       -2.58540000      -0.59000000      -0.79130000
C       -3.37590000      -1.39240000      -0.02870000
O       -2.69000000      -1.84710000       1.10050000
H       -0.66380000       1.69400000       0.75470000
H        0.68500000      -0.08250000      -0.91250000
H        1.32590000      -1.52580000       0.84890000
H        1.10560000      -0.10060000       1.91060000
H       -2.88030000      -0.11440000      -1.71380000
H       -4.38890000      -1.74510000      -0.11020000
