21
Properties=species:S:1:pos:R:3 gdb_108337=T pbc="F F F"
C        0.01520000       1.47060000       0.25280000
C       -0.05980000      -0.01900000      -0.10090000
C        0.75550000      -0.41670000      -1.30980000
O        0.83350000      -1.86740000      -1.46990000
C        2.28420000      -1.83380000      -1.47290000
C        2.29170000      -0.29560000      -1.44470000
C        2.09300000       0.46750000      -2.77460000
C        1.26240000      -0.29760000      -3.76690000
C        0.56360000       0.37910000      -2.62620000
H        1.04720000       1.78200000       0.44670000
H       -0.37620000       2.10200000      -0.55020000
H       -0.56850000       1.68060000       1.15370000
H        0.27890000      -0.62290000       0.74870000
H       -1.10280000      -0.30890000      -0.28820000
H        2.69160000      -2.30200000      -0.56790000
H        2.71190000      -2.32510000      -2.35460000
H        2.90090000       0.21090000      -0.69710000
H        2.69330000       1.31630000      -3.07860000
H        1.14430000       0.19390000      -4.72750000
H        1.28400000      -1.38020000      -3.81960000
H       -0.19050000       1.14080000      -2.78670000
