18
Properties=species:S:1:pos:R:3 gdb_17846=T pbc="F F F"
C       -0.02500000       1.38180000      -0.30550000
C        1.43960000       1.55850000       0.13580000
C        1.27050000       0.15190000       0.73780000
O       -0.09120000       0.06920000       0.28920000
C        2.22000000      -1.05590000       0.54450000
C        3.09750000      -0.41210000       1.65770000
C        1.63540000      -0.28680000       2.17730000
C        1.41500000      -1.75120000       1.68590000
H       -0.74700000       2.07090000       0.14820000
H       -0.19700000       1.34730000      -1.38760000
H        2.16790000       1.63610000      -0.67380000
H        1.61940000       2.35750000       0.85780000
H        2.55430000      -1.49190000      -0.39820000
H        3.73810000      -1.10160000       2.21180000
H        3.62630000       0.51240000       1.41150000
H        1.29720000       0.16180000       3.11270000
H        0.39000000      -2.04280000       1.45630000
H        1.94780000      -2.52700000       2.24210000
