17
Properties=species:S:1:pos:R:3 gdb_91573=T pbc="F F F"
O        0.34450000       1.27290000      -0.14880000
C        0.23210000      -0.10150000       0.06840000
C        0.22960000      -0.63420000       1.55720000
C       -1.18030000      -1.16520000       1.30330000
O       -1.97870000      -0.03690000       0.88970000
C       -1.18000000      -0.71070000      -0.09780000
C       -1.86630000      -1.22850000      -1.33260000
C       -2.13640000      -0.18230000      -2.31610000
C       -2.35330000       0.68030000      -3.12300000
H       -0.43340000       1.67310000       0.26130000
H        0.99110000      -0.59330000      -0.54530000
H        0.97390000      -1.41560000       1.72850000
H        0.30950000       0.13200000       2.33180000
H       -1.70790000      -1.99050000       1.76730000
H       -1.23970000      -2.00700000      -1.78730000
H       -2.80380000      -1.71140000      -1.03190000
H       -2.54370000       1.44510000      -3.83460000
