16
Properties=species:S:1:pos:R:3 gdb_31416=T pbc="F F F"
C       -0.01100000       1.45580000       0.00450000
N       -0.04360000       0.00520000       0.01600000
C       -1.19850000      -0.70290000       0.01570000
N       -2.32880000      -0.02460000       0.03160000
C       -3.53180000      -0.67960000       0.04070000
O       -4.62530000      -0.15340000       0.05850000
N       -3.46840000      -2.10460000       0.02610000
C       -2.30790000      -2.79970000       0.00740000
C       -1.12430000      -2.14220000       0.00220000
H        1.03000000       1.77990000       0.06090000
H       -0.46630000       1.85830000      -0.90630000
H       -0.56410000       1.86160000       0.85590000
H        0.82330000      -0.49950000      -0.03280000
H       -4.36310000      -2.57000000       0.03040000
H       -2.38590000      -3.88110000      -0.00210000
H       -0.18190000      -2.67210000      -0.01070000
