14
Properties=species:S:1:pos:R:3 gdb_31906=T pbc="F F F"
C        0.07750000       1.45710000      -0.15670000
O        0.03290000       0.03050000      -0.05380000
C        0.59150000      -0.67090000      -1.03200000
C        0.71090000      -2.01560000      -1.22680000
N        1.38460000      -2.22400000      -2.41240000
C        1.64250000      -1.04070000      -2.88290000
O        1.17430000      -0.02320000      -2.06710000
C        2.30900000      -0.66960000      -4.06310000
C        2.87910000      -0.34520000      -5.07250000
H        1.11100000       1.81560000      -0.17850000
H       -0.44310000       1.80090000      -1.05560000
H       -0.42850000       1.82940000       0.73360000
H        0.36230000      -2.81990000      -0.60210000
H        3.38290000      -0.06750000      -5.96510000
