16
Properties=species:S:1:pos:R:3 gdb_48300=T pbc="F F F"
N        0.02070000       1.34200000       0.01640000
C        0.01450000       0.07760000      -0.07270000
N       -1.15770000      -0.67930000       0.00850000
C       -1.09690000      -2.13600000       0.01170000
C       -1.30900000      -2.71870000       1.42780000
C       -1.16860000      -4.17140000       1.43310000
N       -1.04310000      -5.31980000       1.41020000
C       -2.40880000      -0.07870000       0.07680000
O       -3.43150000      -0.71640000       0.18410000
H        0.96440000       1.70540000      -0.09110000
H        0.89580000      -0.55600000      -0.22320000
H       -1.87540000      -2.51840000      -0.65110000
H       -0.12590000      -2.44410000      -0.38210000
H       -0.58370000      -2.28810000       2.12680000
H       -2.30990000      -2.44720000       1.77500000
H       -2.35160000       1.01570000       0.01750000
