15
Properties=species:S:1:pos:R:3 gdb_46433=T pbc="F F F"
N       -0.07480000       1.23880000       0.28470000
C       -0.03280000       0.01050000       0.00950000
O        1.11380000      -0.70590000      -0.24140000
C        0.82270000      -1.95550000      -0.87790000
C       -0.66910000      -2.20380000      -0.65260000
C       -1.12670000      -2.13620000       0.78580000
C       -1.20810000      -0.89880000      -0.07210000
C       -1.38970000      -2.98280000      -1.61400000
N       -1.95750000      -3.62200000      -2.39310000
H        0.85910000       1.65060000       0.25410000
H        1.04520000      -1.88380000      -1.94810000
H        1.45890000      -2.72340000      -0.42940000
H       -2.06380000      -2.62400000       1.02370000
H       -0.36440000      -2.18770000       1.55610000
H       -2.16900000      -0.48730000      -0.34510000
