19
Properties=species:S:1:pos:R:3 gdb_98224=T pbc="F F F"
C        0.51550000       1.45940000      -0.29970000
C        0.02980000       0.06770000       0.10030000
C        0.95670000      -0.59750000       1.11230000
O        1.95500000      -0.00790000       1.50490000
N        0.59870000      -1.86790000       1.53720000
C       -0.61390000      -2.51140000       1.02160000
C        1.34580000      -2.65940000       2.48940000
N        2.46400000      -2.08760000       2.97610000
O        0.95250000      -3.76660000       2.80230000
H        1.51110000       1.41360000      -0.74650000
H       -0.17260000       1.90350000      -1.02430000
H        0.57890000       2.11720000       0.57000000
H       -0.98080000       0.11760000       0.52340000
H       -0.05730000      -0.57960000      -0.78080000
H       -0.56340000      -2.64320000      -0.06270000
H       -0.67880000      -3.48660000       1.49760000
H       -1.50710000      -1.93080000       1.26780000
H        2.73270000      -1.16020000       2.67160000
H        2.98860000      -2.63110000       3.63860000
