19
Properties=species:S:1:pos:R:3 gdb_2367=T pbc="F F F"
C       -0.75370000      -1.36560000      -0.88020000
C       -0.87350000      -1.67240000       0.61990000
C       -1.02980000      -3.17750000       0.88090000
C        0.33970000      -1.13710000       1.35240000
O        0.46430000       0.28390000       1.48380000
C        0.32970000      -0.49620000       2.67910000
C       -0.89540000      -0.26480000       3.52680000
H        0.11950000      -1.86710000      -1.31440000
H       -1.63980000      -1.71040000      -1.42270000
H       -0.64310000      -0.29050000      -1.04750000
H       -1.76120000      -1.15520000       0.99990000
H       -0.14890000      -3.73020000       0.53330000
H       -1.15790000      -3.39090000       1.94700000
H       -1.89940000      -3.57610000       0.34920000
H        1.27330000      -1.62640000       1.05600000
H        1.25710000      -0.56310000       3.25350000
H       -0.80080000       0.68040000       4.07190000
H       -1.80600000      -0.21620000       2.92680000
H       -1.00450000      -1.06570000       4.26630000
