20
Properties=species:S:1:pos:R:3 gdb_35248=T pbc="F F F"
C       -0.23960000      -1.25510000       0.30690000
C       -0.13300000      -0.06130000       0.20960000
C       -0.02990000       1.36370000       0.05360000
N        0.59080000       2.13500000       1.15890000
C        1.28330000       2.06760000      -0.13290000
C        2.59570000       1.34220000      -0.17480000
C        3.19510000       0.96960000      -1.56150000
C        4.59880000       1.33730000      -1.00920000
C        3.90020000       2.13920000       0.12220000
H       -0.33080000      -2.30840000       0.40550000
H       -0.88260000       1.81850000      -0.44680000
H        0.10420000       3.02190000       1.26210000
H        1.23570000       2.95280000      -0.76920000
H        2.53580000       0.45970000       0.46700000
H        3.03020000      -0.04650000      -1.92670000
H        2.87170000       1.67320000      -2.33650000
H        5.12160000       0.45970000      -0.61850000
H        5.27920000       1.87860000      -1.67060000
H        3.79090000       3.19650000      -0.14320000
H        4.31110000       2.07690000       1.13220000
