18
Properties=species:S:1:pos:R:3 gdb_62433=T pbc="F F F"
C       -0.08750000       1.56000000       0.05620000
C        0.03670000       0.04710000      -0.00910000
C       -1.11130000      -0.64290000       0.52880000
N       -2.03300000      -1.18990000       0.96590000
C        0.71150000      -0.69000000      -1.16490000
C        1.63310000       0.10020000      -2.09600000
C        2.77040000       0.53020000      -1.19340000
C        2.62240000       0.07050000       0.05240000
C        1.36690000      -0.71660000       0.19870000
H        0.84240000       2.04540000      -0.24220000
H       -0.88910000       1.90680000      -0.60330000
H       -0.32750000       1.87980000       1.07430000
H        0.19520000      -1.55830000      -1.55450000
H        1.98730000      -0.53300000      -2.91940000
H        1.13100000       0.95660000      -2.56480000
H        3.58270000       1.15910000      -1.53940000
H        3.30270000       0.24660000       0.87690000
H        1.33310000      -1.58460000       0.84670000
