19
Properties=species:S:1:pos:R:3 gdb_93265=T pbc="F F F"
C        0.24980000       1.58540000       0.07200000
C       -0.03520000       0.07780000      -0.05290000
O       -1.42610000      -0.15900000      -0.09060000
C        0.68760000      -0.56440000      -1.25650000
O        0.67460000       0.19190000      -2.44740000
C        2.13710000      -0.75660000      -0.77320000
C        2.01710000      -1.10890000       0.72610000
C        0.61060000      -0.66670000       1.12010000
O        0.02110000      -0.91370000       2.14360000
H        1.31920000       1.80800000       0.13470000
H       -0.15030000       2.09850000      -0.80490000
H       -0.23990000       1.97320000       0.96920000
H       -1.68520000      -0.36190000       0.82080000
H        0.21570000      -1.54730000      -1.41520000
H       -0.23570000       0.22910000      -2.76050000
H        2.65790000      -1.52210000      -1.35130000
H        2.67690000       0.18340000      -0.91960000
H        2.09740000      -2.18330000       0.92260000
H        2.76900000      -0.62270000       1.35490000
