15
Properties=species:S:1:pos:R:3 gdb_19606=T pbc="F F F"
C        0.00900000       1.53230000       0.03610000
N        0.06830000       0.07520000      -0.01130000
C        0.77320000      -0.56230000      -1.12620000
C        1.34420000      -1.62390000      -0.27260000
C        2.29840000      -0.54230000      -0.86690000
C        2.44510000      -0.02560000       0.52850000
O        3.35800000       0.40500000       1.17560000
C        1.04310000      -0.60360000       0.88840000
H        0.98630000       2.02720000      -0.08640000
H       -0.65970000       1.88660000      -0.75460000
H       -0.41270000       1.84030000       0.99780000
H        0.38080000      -0.60800000      -2.13530000
H        1.41270000      -2.69830000      -0.31980000
H        3.04280000      -0.66110000      -1.64120000
H        0.74880000      -0.80480000       1.91600000
