20
Properties=species:S:1:pos:R:3 gdb_47496=T pbc="F F F"
O        0.05540000      -0.05780000       0.01540000
C       -0.00450000       1.15820000       0.01900000
C       -1.33100000       1.90750000       0.10840000
C       -1.21440000       3.37690000       0.53030000
C       -0.09050000       4.05960000      -0.25710000
C        1.22330000       3.36060000       0.02110000
C        2.52330000       3.99830000      -0.37230000
C        2.14480000       3.90540000       1.09360000
N        1.11970000       1.92910000      -0.12390000
H       -1.78630000       1.83830000      -0.88830000
H       -1.97530000       1.33340000       0.77860000
H       -2.16750000       3.89080000       0.37050000
H       -0.99380000       3.44280000       1.60270000
H       -0.31100000       4.01420000      -1.33200000
H       -0.00330000       5.11640000       0.01200000
H        3.31830000       3.35250000      -0.73230000
H        2.49080000       4.96820000      -0.85750000
H        1.85830000       4.81480000       1.61150000
H        2.68080000       3.18940000       1.70710000
H        1.97350000       1.39070000      -0.17720000
