21
Properties=species:S:1:pos:R:3 gdb_101403=T pbc="F F F"
C        0.09400000       1.60930000      -0.08950000
C        0.02000000       0.07950000      -0.05830000
C       -1.41090000      -0.48920000      -0.00390000
C       -2.23490000      -0.15630000      -1.25680000
C       -1.36850000      -2.00860000       0.20590000
C       -0.90280000      -2.57400000       1.56300000
O       -2.21250000      -3.19770000       1.76600000
C       -2.68750000      -2.69640000       0.58010000
O       -3.78240000      -2.81590000       0.13000000
H        1.13410000       1.94810000      -0.06530000
H       -0.36460000       2.02170000      -0.99280000
H       -0.41820000       2.04770000       0.77430000
H        0.53030000      -0.33250000      -0.93990000
H        0.58090000      -0.28270000       0.81330000
H       -1.91750000      -0.04840000       0.86780000
H       -3.21830000      -0.63090000      -1.21270000
H       -2.38090000       0.92180000      -1.36220000
H       -1.72830000      -0.51590000      -2.16080000
H       -0.89270000      -2.49670000      -0.65150000
H       -0.11450000      -3.32870000       1.54250000
H       -0.70750000      -1.83600000       2.34490000
