23
Properties=species:S:1:pos:R:3 gdb_101470=T pbc="F F F"
C       -0.02620000       1.55730000      -0.02240000
C        0.01540000       0.02310000      -0.04760000
C        0.75160000      -0.47340000      -1.29590000
O        0.06350000       0.00700000      -2.44210000
C        0.64310000      -0.56230000       1.22630000
C       -0.06470000      -0.18480000       2.54130000
C        0.42010000      -1.28220000       3.48840000
O        0.57200000      -2.45470000       2.69220000
C        0.62230000      -2.10250000       1.31180000
H        0.98010000       1.97200000       0.11630000
H       -0.42100000       1.94010000      -0.96550000
H       -0.65570000       1.92830000       0.79110000
H       -1.01620000      -0.35100000      -0.11910000
H        1.79270000      -0.10790000      -1.27460000
H        0.78980000      -1.57330000      -1.30030000
H        0.54570000      -0.27590000      -3.22400000
H        1.68700000      -0.22280000       1.29020000
H        0.18150000       0.81810000       2.89690000
H       -1.15230000      -0.24300000       2.41160000
H        1.38490000      -1.00850000       3.94430000
H       -0.28380000      -1.50050000       4.29860000
H       -0.26540000      -2.50870000       0.80170000
H        1.50790000      -2.56450000       0.85910000
