13
Properties=species:S:1:pos:R:3 gdb_2890=T pbc="F F F"
C        0.05220000      -1.20530000      -0.11300000
C        0.02600000      -0.00570000      -0.04850000
C       -0.02810000       1.44990000       0.04090000
C       -0.59770000       1.95640000       1.40410000
O        0.26330000       3.02680000       1.74510000
C        1.51360000       2.63870000       1.23810000
O        1.27100000       2.05260000      -0.02460000
H        0.07950000      -2.26520000      -0.17820000
H       -0.61090000       1.84690000      -0.79810000
H       -1.61810000       2.33500000       1.32710000
H       -0.55790000       1.15420000       2.15330000
H        2.14110000       3.52410000       1.10850000
H        2.00280000       1.91320000       1.91290000
