15
Properties=species:S:1:pos:R:3 gdb_32298=T pbc="F F F"
C        0.07460000       1.44130000       0.06860000
N       -0.05690000       0.01270000      -0.07190000
C       -1.25290000      -0.63320000      -0.01880000
C       -2.49890000      -0.06990000       0.02270000
N       -3.65110000      -0.82870000       0.04080000
C       -3.52250000      -2.09550000       0.03030000
O       -2.34160000      -2.77260000       0.00850000
C       -1.14440000      -2.09640000      -0.01140000
O       -0.10710000      -2.71140000      -0.01470000
H        1.13100000       1.70910000       0.01590000
H       -0.44920000       1.96650000      -0.74040000
H       -0.33020000       1.80620000       1.02430000
H        0.74800000      -0.58460000       0.03320000
H       -2.64070000       1.00420000       0.03690000
H       -4.36420000      -2.77730000       0.03970000
