17
Properties=species:S:1:pos:R:3 gdb_42419=T pbc="F F F"
O       -0.06530000      -0.03330000      -0.44350000
C       -0.03170000       1.14660000      -0.16560000
C        1.26410000       1.89370000       0.10410000
C        2.48150000       0.98420000       0.07460000
C        2.92540000       0.43240000      -1.29780000
O        4.21920000       1.06450000      -1.18450000
C        3.87010000       1.66350000       0.07730000
C       -1.24400000       1.94400000      -0.07670000
C       -2.23310000       2.62540000       0.00240000
H        1.34770000       2.69480000      -0.64460000
H        1.16770000       2.41010000       1.06910000
H        2.37830000       0.20200000       0.82870000
H        3.00100000      -0.65720000      -1.37560000
H        2.35850000       0.80950000      -2.15930000
H        3.85410000       2.76130000       0.02170000
H        4.55260000       1.36210000       0.88120000
H       -3.11850000       3.21050000       0.06720000
