21
Properties=species:S:1:pos:R:3 gdb_39595=T pbc="F F F"
C       -0.03070000       1.57280000      -0.00230000
C        1.45580000       1.89450000      -0.05560000
C        2.19830000       0.88410000       0.40370000
C        1.30630000      -0.23640000       0.89380000
C        1.65450000      -1.71890000       0.78480000
C        0.42690000      -2.50390000       1.28800000
O       -0.77820000      -2.16740000       0.61540000
C       -1.12620000      -0.78650000       0.68870000
C        0.01090000       0.03750000       0.10400000
H       -0.49360000       2.03570000       0.88360000
H       -0.58740000       1.93180000      -0.87420000
H        1.83570000       2.85350000      -0.39000000
H        3.27800000       0.88680000       0.50640000
H        1.10300000      -0.04270000       1.96400000
H        1.87210000      -1.99140000      -0.25480000
H        2.52810000      -1.98960000       1.39030000
H        0.55640000      -3.57940000       1.13670000
H        0.31290000      -2.32850000       2.37250000
H       -2.05680000      -0.68530000       0.12170000
H       -1.32870000      -0.49230000       1.73330000
H        0.18000000      -0.34530000      -0.91210000
