21
Properties=species:S:1:pos:R:3 gdb_113191=T pbc="F F F"
C        0.10450000       1.35680000      -0.39970000
C        0.01700000       0.04710000       0.38350000
O        0.43450000       0.19920000       1.73870000
C       -1.37780000      -0.58250000       0.31590000
C       -2.49220000       0.18750000       0.99570000
O       -1.71390000      -1.12850000      -0.97050000
C       -1.53840000      -2.03370000       0.12970000
C       -0.41530000      -3.03850000       0.06560000
O       -0.97290000      -4.25780000      -0.40360000
H        1.13040000       1.73470000      -0.38300000
H       -0.19800000       1.19940000      -1.43870000
H       -0.54800000       2.12640000       0.02920000
H        0.72990000      -0.65690000      -0.05300000
H        0.02730000       0.99900000       2.08740000
H       -2.61670000       1.18240000       0.55610000
H       -3.43970000      -0.34480000       0.88810000
H       -2.28400000       0.30500000       2.06400000
H       -2.46850000      -2.48140000       0.48510000
H        0.37350000      -2.67480000      -0.60590000
H        0.01830000      -3.15630000       1.07210000
H       -0.26870000      -4.91090000      -0.44930000
