16
Properties=species:S:1:pos:R:3 gdb_26630=T pbc="F F F"
C       -0.04730000       1.52190000       0.08140000
C        0.00050000       0.03490000      -0.01240000
C       -0.03680000      -0.79020000      -1.11560000
N       -0.17370000      -0.39450000      -2.45470000
C        0.02030000      -2.14510000      -0.63750000
C        0.09130000      -2.09460000       0.74660000
N        0.09070000      -0.78660000       1.10170000
C        0.01460000      -3.29670000      -1.45390000
N        0.01340000      -4.20910000      -2.17060000
H        0.94210000       1.97980000       0.21480000
H       -0.48030000       1.93050000      -0.83610000
H       -0.67640000       1.85480000       0.91530000
H        0.50050000       0.30520000      -2.73770000
H       -0.11930000      -1.18110000      -3.08990000
H        0.14240000      -2.88980000       1.47100000
H        0.12750000      -0.45180000       2.04910000
