22
Properties=species:S:1:pos:R:3 gdb_80882=T pbc="F F F"
C       -0.07940000       1.62900000      -0.00150000
C       -0.01900000       0.10360000       0.00660000
C        1.07520000      -0.57400000      -0.87100000
C        2.07240000      -0.26740000       0.28360000
C        0.79350000      -0.59200000       1.15030000
C        0.65830000      -0.21670000       2.60760000
C        0.68520000      -2.08460000       0.77320000
C       -0.32730000      -2.57620000      -0.19700000
N        0.96260000      -2.06240000      -0.69250000
H        0.89030000       2.11670000       0.12200000
H       -0.50340000       1.98130000      -0.94840000
H       -0.73350000       1.99000000       0.80010000
H       -1.04250000      -0.25040000      -0.13120000
H        1.25470000      -0.29040000      -1.90830000
H        2.92220000      -0.94850000       0.37260000
H        2.40760000       0.76750000       0.34580000
H        0.81640000       0.85560000       2.76110000
H       -0.33770000      -0.46720000       2.99050000
H        1.39180000      -0.75150000       3.22220000
H        1.24860000      -2.79430000       1.37650000
H       -0.41600000      -3.65250000      -0.32250000
H       -1.25460000      -2.04590000      -0.37650000
