16
Properties=species:S:1:pos:R:3 gdb_48580=T pbc="F F F"
O       -0.12970000       0.02950000      -0.27060000
C        0.01550000       1.14260000       0.16650000
C        1.29480000       1.91150000       0.05630000
C        2.67580000       1.28910000      -0.29820000
C        3.00080000       2.79700000      -0.61370000
C        1.53640000       2.89060000      -1.14520000
C        2.83600000       3.37150000       0.80030000
O        3.57370000       4.04650000       1.46660000
N        1.58640000       2.83760000       1.17570000
H       -0.81640000       1.69230000       0.66100000
H        3.22510000       0.80090000       0.51000000
H        2.65090000       0.66040000      -1.18910000
H        3.86950000       3.12480000      -1.17780000
H        1.40610000       2.40240000      -2.11170000
H        1.02520000       3.85370000      -1.10300000
H        1.49900000       2.51410000       2.13080000
