23
Properties=species:S:1:pos:R:3 gdb_83643=T pbc="F F F"
C       -0.50160000       1.40800000      -0.05800000
C       -0.04630000      -0.04480000      -0.05310000
C        1.10660000      -0.51260000      -0.99140000
C        2.33570000       0.43040000      -1.14000000
C        3.08210000      -0.34360000      -0.01180000
C        1.82150000      -1.21200000       0.22520000
C        0.75800000      -0.59490000       1.14700000
C        1.00170000       0.07400000       2.47120000
C        0.19390000      -1.20030000       2.39790000
H        0.32310000       2.09810000       0.14460000
H       -0.93770000       1.67950000      -1.02590000
H       -1.26770000       1.58120000       0.70660000
H       -0.91900000      -0.68670000      -0.22790000
H        0.80740000      -1.04910000      -1.89310000
H        2.82080000       0.36590000      -2.11690000
H        2.14250000       1.48650000      -0.93660000
H        3.93070000      -0.92180000      -0.38770000
H        3.42320000       0.24560000       0.84420000
H        1.95450000      -2.29330000       0.30200000
H        1.99990000       0.02410000       2.89590000
H        0.47680000       0.99950000       2.68620000
H       -0.87860000      -1.13650000       2.55860000
H        0.64490000      -2.11440000       2.77210000
