19
Properties=species:S:1:pos:R:3 gdb_74122=T pbc="F F F"
C        0.34720000       1.53250000       0.06110000
C       -0.00390000       0.07090000      -0.02880000
C       -0.05720000      -0.53460000      -1.22570000
C       -0.48320000      -1.90280000      -1.59420000
O       -0.68510000      -2.14560000      -2.77780000
C       -0.65980000      -3.00800000      -0.61980000
C       -0.30050000      -3.06910000       0.66630000
C        0.28900000      -1.97690000       1.51470000
C       -0.31880000      -0.58520000       1.29770000
H        1.24770000       1.67850000       0.67160000
H        0.51760000       1.97640000      -0.92190000
H       -0.45530000       2.09150000       0.55990000
H        0.15550000       0.05500000      -2.11420000
H       -1.06480000      -3.89530000      -1.09870000
H       -0.43150000      -4.02580000       1.16870000
H        0.16170000      -2.24810000       2.56830000
H        1.37540000      -1.93140000       1.34900000
H        0.03030000       0.07150000       2.10190000
H       -1.40990000      -0.64790000       1.41540000
