15
Properties=species:S:1:pos:R:3 gdb_1432=T pbc="F F F"
C       -0.02570000       1.51640000       0.10480000
C        0.14130000       0.00410000      -0.01510000
C        0.60930000      -0.44320000      -1.39220000
O        0.82550000       0.33420000      -2.29860000
C        0.78210000      -1.87460000      -1.55300000
C        0.92250000      -3.06720000      -1.67570000
C        1.09850000      -4.49910000      -1.84640000
H        0.91760000       2.03070000      -0.09540000
H       -0.75690000       1.88730000      -0.61790000
H       -0.36240000       1.78680000       1.10950000
H        0.86050000      -0.38300000       0.71940000
H       -0.79650000      -0.52490000       0.20240000
H        2.13540000      -4.73320000      -2.11100000
H        0.84940000      -5.04810000      -0.93240000
H        0.45970000      -4.87480000      -2.65310000
