21
Properties=species:S:1:pos:R:3 gdb_13634=T pbc="F F F"
C       -0.49650000       1.52180000       0.12880000
O       -0.50510000       0.15880000       0.49070000
C       -1.44010000      -0.64090000      -0.22470000
C       -0.92900000      -0.97580000      -1.63210000
C       -1.71300000      -1.92590000       0.54810000
C       -0.87090000      -2.35240000       1.70220000
N       -2.26960000      -1.98530000       1.89820000
C       -2.56640000      -0.75390000       2.62060000
H        0.20200000       2.02650000       0.80070000
H       -0.16040000       1.68230000      -0.90530000
H       -1.49170000       1.97860000       0.24350000
H       -2.38590000      -0.07780000      -0.31640000
H       -1.67150000      -1.56170000      -2.18260000
H       -0.72870000      -0.06970000      -2.21000000
H       -0.00430000      -1.55720000      -1.56800000
H       -2.11960000      -2.70140000      -0.10040000
H       -0.62770000      -3.40190000       1.85070000
H       -0.10900000      -1.64820000       2.02650000
H       -1.82150000       0.03960000       2.48410000
H       -3.54390000      -0.37760000       2.29900000
H       -2.63750000      -0.98890000       3.68760000
