18
Properties=species:S:1:pos:R:3 gdb_92400=T pbc="F F F"
N        0.51100000       1.12670000      -0.61080000
C        0.17060000      -0.10380000       0.04560000
C        0.18400000      -0.09540000       1.60500000
C       -1.21150000      -0.77740000       1.65690000
C       -2.40350000       0.18980000       1.79540000
N       -2.23950000       0.58810000       0.36820000
C       -1.33910000      -0.56830000       0.10400000
C       -1.81640000      -1.56190000      -0.82800000
N       -2.18280000      -2.35100000      -1.59230000
H        0.54720000       1.00350000      -1.61820000
H       -0.22120000       1.80760000      -0.41730000
H        0.78910000      -0.91550000      -0.34740000
H        1.00070000      -0.66220000       2.05510000
H        0.19070000       0.91360000       2.02550000
H       -1.27760000      -1.75570000       2.12680000
H       -3.34460000      -0.33360000       2.00330000
H       -2.29200000       1.01880000       2.50270000
H       -3.09100000       0.59450000      -0.18040000
