23
Properties=species:S:1:pos:R:3 gdb_121395=T pbc="F F F"
C        0.03330000       1.55770000      -0.03350000
C        0.00930000       0.02770000      -0.00380000
C       -1.41170000      -0.54580000       0.02280000
C       -1.45590000      -2.06870000       0.01270000
C       -2.87180000      -2.64830000       0.12800000
C       -2.81980000      -4.16300000      -0.09090000
O       -2.14510000      -4.46850000      -1.30420000
C       -0.85830000      -3.91190000      -1.31320000
O       -0.86600000      -2.51410000      -1.21280000
H        1.05870000       1.93990000      -0.05030000
H       -0.47970000       1.94410000      -0.92130000
H       -0.46530000       1.98250000       0.84540000
H        0.53320000      -0.37250000      -0.87790000
H        0.55940000      -0.33180000       0.87630000
H       -1.94210000      -0.19280000       0.91720000
H       -1.97700000      -0.17960000      -0.84400000
H       -0.84720000      -2.45660000       0.85130000
H       -3.30050000      -2.41970000       1.11050000
H       -3.50870000      -2.19150000      -0.63770000
H       -2.30310000      -4.64860000       0.75520000
H       -3.81940000      -4.59780000      -0.17090000
H       -0.26010000      -4.34250000      -0.48550000
H       -0.40670000      -4.16280000      -2.27530000
