16
Properties=species:S:1:pos:R:3 gdb_22337=T pbc="F F F"
C        0.26760000       1.48450000       0.01670000
C       -0.02050000      -0.00900000      -0.04990000
C        0.61490000      -0.71910000      -1.26630000
C        1.85340000      -1.32330000      -0.66830000
N        2.84330000      -1.70040000      -1.37980000
O        3.88860000      -2.23270000      -0.65580000
C        1.67580000      -1.36000000       0.82550000
O        2.33910000      -1.89170000       1.66640000
O        0.54550000      -0.65640000       1.11620000
H        1.34230000       1.67740000      -0.06730000
H       -0.24160000       2.00400000      -0.80120000
H       -0.08420000       1.89840000       0.96500000
H       -1.09740000      -0.18720000       0.00240000
H       -0.04820000      -1.50530000      -1.64450000
H        0.82880000      -0.03670000      -2.09080000
H        4.53000000      -2.44330000      -1.34470000
