20
Properties=species:S:1:pos:R:3 gdb_120018=T pbc="F F F"
C       -0.19440000       1.53020000       0.11140000
N       -0.04080000       0.08980000       0.05580000
C       -1.24740000      -0.71990000       0.34740000
C       -0.37330000      -1.59680000       1.25130000
O       -0.49480000      -2.65330000       1.79360000
C        0.76240000      -0.56750000       1.12490000
C        2.14580000      -1.08230000       0.74490000
C        3.17080000       0.03030000       0.51370000
O        4.47070000      -0.47150000       0.25220000
H        0.77360000       2.01750000      -0.03820000
H       -0.86150000       1.86240000      -0.69030000
H       -0.61260000       1.88520000       1.07280000
H       -2.02150000      -0.19120000       0.92890000
H       -1.71940000      -1.19570000      -0.51870000
H        0.81810000       0.04160000       2.04630000
H        2.50570000      -1.73960000       1.54490000
H        2.05610000      -1.69170000      -0.16340000
H        2.82840000       0.69260000      -0.29630000
H        3.26700000       0.64370000       1.41720000
H        4.43600000      -0.96220000      -0.57520000
