18
Properties=species:S:1:pos:R:3 gdb_88047=T pbc="F F F"
O       -0.07950000       1.36640000      -0.11030000
C       -0.02350000      -0.02180000       0.02700000
C       -0.50310000      -0.67150000       1.30700000
C       -1.34280000      -0.72190000       0.06090000
C       -2.68010000      -0.04250000      -0.24590000
C       -2.88030000      -1.05750000      -1.40800000
C       -1.73410000      -1.93960000      -0.80560000
C       -0.73630000      -2.49110000      -1.70710000
N        0.07480000      -2.90820000      -2.41850000
H        0.65090000       1.74700000       0.38830000
H        0.78820000      -0.51210000      -0.51100000
H       -0.00600000      -1.57660000       1.64280000
H       -0.84600000      -0.01230000       2.09870000
H       -3.41530000      -0.16740000       0.55460000
H       -2.62100000       1.01220000      -0.51690000
H       -3.85290000      -1.54320000      -1.49630000
H       -2.59590000      -0.64250000      -2.37600000
H       -2.14100000      -2.74840000      -0.18980000
