15
Properties=species:S:1:pos:R:3 gdb_47115=T pbc="F F F"
O        0.16040000       0.07240000       0.42070000
C        0.10070000       1.25900000       0.30630000
O       -0.99730000       1.98150000       0.64930000
C       -0.82870000       3.38220000       0.36980000
C        0.66450000       3.61550000       0.10070000
O        1.39150000       4.02000000       1.25490000
C        2.17190000       2.91780000       1.68890000
O        2.39600000       2.10730000       0.55820000
C        1.21050000       2.20930000      -0.20100000
H       -1.43950000       3.63850000      -0.50250000
H       -1.17560000       3.95080000       1.23450000
H        0.82560000       4.35480000      -0.68750000
H        3.13430000       3.27570000       2.06340000
H        1.63820000       2.35670000       2.47420000
H        1.44320000       1.99770000      -1.24570000
