21
Properties=species:S:1:pos:R:3 gdb_118181=T pbc="F F F"
C        0.05720000       1.52560000       0.03170000
C        0.00060000       0.00260000      -0.01370000
C        0.73160000      -0.58920000      -1.21270000
C        0.60970000      -2.10450000      -1.31740000
O        1.28540000      -2.50580000      -2.50000000
O        0.64210000      -0.54260000       1.17300000
C       -0.10310000      -0.62380000       2.29550000
C        0.70920000      -1.20590000       3.42850000
O       -1.25620000      -0.27910000       2.37040000
H        1.09460000       1.87240000       0.07400000
H       -0.41010000       1.94580000      -0.86420000
H       -0.48010000       1.90030000       0.90540000
H       -1.04410000      -0.32370000       0.00300000
H        0.32200000      -0.14220000      -2.12550000
H        1.79230000      -0.31660000      -1.17060000
H        1.04830000      -2.57320000      -0.42490000
H       -0.45540000      -2.38900000      -1.35020000
H        1.25610000      -3.46540000      -2.55150000
H        1.58400000      -0.57880000       3.62230000
H        0.09100000      -1.26920000       4.32320000
H        1.07690000      -2.19940000       3.15670000
