19
Properties=species:S:1:pos:R:3 gdb_91839=T pbc="F F F"
C        0.65090000       1.49400000       0.01590000
C        0.00430000       0.10260000      -0.01990000
C        0.46890000      -0.79660000      -1.20500000
N        1.32000000      -1.89310000      -0.70390000
C        2.48100000      -1.46080000       0.06950000
C        1.22790000      -1.86820000       0.77600000
C        0.28280000      -0.76110000       1.24270000
C        1.16730000      -3.13520000       1.46440000
N        1.11530000      -4.13020000       2.05110000
H        1.73880000       1.45170000       0.12810000
H        0.43730000       2.04350000      -0.90680000
H        0.25790000       2.08360000       0.85080000
H       -1.07570000       0.25540000      -0.10570000
H       -0.39080000      -1.26360000      -1.69440000
H        1.01600000      -0.23300000      -1.96790000
H        3.32290000      -2.14570000       0.04330000
H        2.74670000      -0.40810000       0.09810000
H        0.71530000      -0.17560000       2.05940000
H       -0.63640000      -1.21530000       1.62180000
