17
Properties=species:S:1:pos:R:3 gdb_52748=T pbc="F F F"
C       -0.00240000       1.45710000      -0.05710000
C       -0.00190000       0.00270000      -0.00120000
C        0.00700000      -1.20010000       0.06620000
C        0.01840000      -2.65880000       0.08140000
C       -1.43000000      -3.22910000       0.00450000
C       -1.46560000      -4.68380000       0.06420000
C       -1.46190000      -5.88440000       0.11260000
C        0.84020000      -3.14150000      -1.12150000
O        1.87350000      -3.74430000      -1.04010000
H        0.85370000       1.83050000      -0.62950000
H       -0.91290000       1.83690000      -0.53300000
H        0.05480000       1.89080000       0.94710000
H        0.51180000      -3.04010000       0.98100000
H       -2.01120000      -2.79650000       0.82580000
H       -1.89850000      -2.87500000      -0.92220000
H       -1.46640000      -6.94550000       0.15320000
H        0.39320000      -2.86220000      -2.10250000
