13
Properties=species:S:1:pos:R:3 gdb_24893=T pbc="F F F"
O       -0.10240000      -0.03060000       0.00490000
C        0.01250000       1.16290000       0.00940000
O       -1.17750000       1.92630000       0.02990000
C       -1.18200000       3.27710000       0.03670000
C       -0.03090000       4.00060000       0.02420000
C        1.20840000       3.29830000       0.00340000
C        1.23420000       1.94220000      -0.00380000
C       -2.48020000       3.84720000       0.05770000
C       -3.57850000       4.33870000       0.07550000
H       -0.07840000       5.08010000       0.03030000
H        2.13610000       3.86160000      -0.00680000
H        2.15480000       1.37350000      -0.01950000
H       -4.55010000       4.76820000       0.09120000
