15
Properties=species:S:1:pos:R:3 gdb_43529=T pbc="F F F"
N       -0.12300000       1.13440000      -0.94320000
C       -0.03340000       0.08460000      -0.25010000
N        0.95480000      -0.58870000       0.47660000
C        0.14560000      -1.80860000       0.70630000
C        0.06400000      -2.27770000       2.07760000
C       -0.02170000      -2.68520000       3.20500000
C       -1.04000000      -0.98530000       0.11840000
C       -2.43670000      -0.89640000       0.52970000
O       -2.03720000      -1.50530000      -0.71230000
H        0.77000000       1.62290000      -1.02420000
H        1.94950000      -0.57270000       0.30580000
H        0.40250000      -2.63440000       0.03080000
H       -0.09170000      -3.03860000       4.20430000
H       -2.80930000      -1.58320000       1.28680000
H       -2.95570000       0.05430000       0.43210000
