17
Properties=species:S:1:pos:R:3 gdb_39709=T pbc="F F F"
C       -0.04400000       1.53810000       0.01070000
O        1.14750000       0.72410000      -0.00580000
C       -0.11590000       0.08190000       0.00340000
C       -0.47860000      -0.97380000       1.05250000
C       -1.95280000      -1.34740000       0.78480000
C       -1.62790000      -2.59910000       0.00350000
C       -1.96830000      -1.33860000      -0.75670000
C       -0.49970000      -0.96210000      -1.04990000
C       -0.14830000      -2.10160000      -0.00850000
H       -0.21380000       2.08950000       0.93490000
H       -0.23230000       2.09980000      -0.90360000
H       -0.09260000      -0.94930000       2.06950000
H       -2.83100000      -1.11490000       1.37170000
H       -2.08680000      -3.57790000       0.00250000
H       -2.85820000      -1.09940000      -1.32320000
H       -0.13430000      -0.92620000      -2.07420000
H        0.76640000      -2.68640000      -0.02090000
