14
Properties=species:S:1:pos:R:3 gdb_48054=T pbc="F F F"
O       -0.48020000       1.13300000      -0.99720000
C        0.06630000       1.04060000       0.06690000
C        1.20950000       1.96670000       0.50530000
O        2.00660000       1.58020000       1.32560000
C        1.29410000       3.36620000      -0.11690000
O        0.27040000       3.99000000      -0.30090000
C        2.64850000       3.90550000      -0.39010000
C        2.84950000       4.47220000      -1.77110000
N        2.76050000       5.35220000      -0.62000000
H       -0.12950000       0.22680000       0.79640000
H        3.47560000       3.42700000       0.12140000
H        3.83390000       4.38050000      -2.22000000
H        2.00810000       4.41330000      -2.45620000
H        1.81740000       5.74000000      -0.56910000
