18
Properties=species:S:1:pos:R:3 gdb_106075=T pbc="F F F"
C       -0.38110000       1.46780000      -0.01410000
C        0.11200000       0.02300000      -0.16150000
C        0.77060000      -0.50530000       1.07710000
C        1.15910000      -1.86050000       1.56750000
C        2.70920000      -1.87520000       1.53170000
N        3.06720000      -0.49970000       2.04010000
C        1.94560000       0.07970000       1.94720000
O        1.14930000       0.34380000       3.07310000
C        0.35060000      -0.76600000       2.45010000
H        0.44860000       2.14710000       0.20610000
H       -0.86080000       1.81070000      -0.93530000
H       -1.10680000       1.55630000       0.80010000
H       -0.72730000      -0.63640000      -0.41680000
H        0.81800000      -0.04710000      -0.99870000
H        0.58240000      -2.74780000       1.31010000
H        3.16030000      -2.56460000       2.25130000
H        3.08680000      -2.12770000       0.52940000
H       -0.60850000      -0.95000000       2.92080000
