21
Properties=species:S:1:pos:R:3 gdb_84984=T pbc="F F F"
C       -0.10090000       1.55880000      -0.01310000
C        0.01880000       0.03070000      -0.03580000
C       -1.38460000      -0.60830000       0.06280000
C        0.81140000      -0.51840000      -1.24060000
C        1.50680000      -1.79560000      -0.74250000
O        2.59730000      -2.08870000      -1.59880000
C        1.89970000      -1.45400000       0.70400000
C        0.83230000      -0.46870000       1.18080000
O        0.63760000      -0.13260000       2.32090000
H        0.88060000       2.03620000      -0.09970000
H       -0.72180000       1.91180000      -0.84320000
H       -0.55500000       1.88820000       0.92560000
H       -2.00430000      -0.28290000      -0.77930000
H       -1.34240000      -1.70240000       0.04350000
H       -1.87430000      -0.30770000       0.99330000
H        0.18850000      -0.70140000      -2.12020000
H        1.59750000       0.18700000      -1.53500000
H        0.79110000      -2.63220000      -0.74150000
H        2.98470000      -2.92400000      -1.31930000
H        2.00310000      -2.30110000       1.38680000
H        2.86030000      -0.92080000       0.68580000
