15
Properties=species:S:1:pos:R:3 gdb_45742=T pbc="F F F"
O       -0.10980000      -0.01000000       0.00740000
C       -0.03920000       1.17620000       0.01170000
O       -1.17700000       1.99690000       0.03110000
C       -0.69360000       3.27940000       0.03070000
N        0.56150000       3.46000000       0.01410000
C        1.14600000       2.12880000       0.00010000
C        2.26600000       1.82300000       1.04160000
N        3.10270000       1.24440000      -0.03060000
C        2.23730000       1.83270000      -1.07440000
H       -1.45500000       4.04990000       0.04450000
H        2.63110000       2.75890000       1.48060000
H        2.00380000       1.11800000       1.83670000
H        4.06420000       1.56300000      -0.04220000
H        1.95340000       1.13500000      -1.86840000
H        2.59040000       2.77260000      -1.51450000
