21
Properties=species:S:1:pos:R:3 gdb_41628=T pbc="F F F"
C        0.48180000       1.52060000      -0.58180000
C        1.62610000       1.52120000       0.47010000
C        1.40270000      -0.00310000       0.67760000
C        0.04000000       0.11160000      -0.07650000
C       -0.08080000      -1.07460000      -1.05040000
C        1.33890000      -1.65380000      -1.22250000
C        2.25120000      -1.00200000      -2.27880000
O        2.96420000      -0.24990000      -1.27520000
C        2.26150000      -0.92570000      -0.19910000
H       -0.26310000       2.31660000      -0.50380000
H        0.86400000       1.50490000      -1.60510000
H        2.61380000       1.82230000       0.11960000
H        1.37040000       2.09200000       1.36630000
H        1.38360000      -0.36550000       1.70920000
H       -0.82670000       0.18410000       0.58500000
H       -0.73800000      -1.83920000      -0.62190000
H       -0.52310000      -0.78380000      -2.01040000
H        1.35040000      -2.74460000      -1.21990000
H        2.91650000      -1.69840000      -2.80560000
H        1.76250000      -0.35260000      -3.01610000
H        2.95700000      -1.54300000       0.38100000
