25
Properties=species:S:1:pos:R:3 gdb_118718=T pbc="F F F"
C       -0.13990000       1.57240000       0.15760000
C       -0.14440000       0.04900000       0.31200000
C       -1.40810000      -0.60450000      -0.26830000
C       -1.46410000      -2.11710000      -0.09640000
C       -0.44010000      -2.87560000      -0.93060000
C       -1.76110000      -2.77820000       1.22960000
C       -2.79040000      -1.99870000       2.06050000
C       -3.81150000      -2.11660000       0.88280000
C       -2.76150000      -2.87830000       0.06510000
H        0.76680000       2.01570000       0.58150000
H       -0.19040000       1.86440000      -0.89750000
H       -0.99970000       2.02520000       0.66440000
H        0.74760000      -0.36500000      -0.17340000
H       -0.06130000      -0.21520000       1.37410000
H       -2.28230000      -0.13370000       0.19320000
H       -1.47720000      -0.36920000      -1.34010000
H        0.58580000      -2.60500000      -0.65950000
H       -0.54080000      -3.95690000      -0.79300000
H       -0.56960000      -2.66180000      -1.99810000
H       -1.10580000      -3.54560000       1.62730000
H       -3.11980000      -2.54870000       2.94470000
H       -2.50250000      -0.98990000       2.37390000
H       -4.66370000      -2.74670000       1.14760000
H       -4.19710000      -1.18660000       0.45220000
H       -2.97860000      -3.73110000      -0.56930000
