21
Properties=species:S:1:pos:R:3 gdb_6898=T pbc="F F F"
C       -0.55410000       0.64900000      -2.07590000
N       -0.12900000      -0.31560000      -1.07100000
C        1.28790000      -0.44530000      -0.72420000
C        2.37950000       0.37070000      -1.37950000
O        2.60480000      -0.01870000      -2.73070000
C        0.29960000       0.09480000       0.27160000
C        0.31820000       1.55470000       0.69240000
C       -0.18470000      -0.83260000       1.37270000
H       -0.06860000       1.63370000      -2.03570000
H       -0.35690000       0.22730000      -3.06520000
H       -1.63330000       0.80440000      -1.97560000
H        1.59100000      -1.48840000      -0.58970000
H        2.13640000       1.43360000      -1.42440000
H        3.30010000       0.27620000      -0.78090000
H        2.76620000      -0.96820000      -2.73850000
H        0.67060000       2.23480000      -0.08340000
H       -0.68960000       1.87440000       0.98170000
H        0.96440000       1.68600000       1.56700000
H        0.47720000      -0.78850000       2.24540000
H       -1.19130000      -0.54910000       1.70170000
H       -0.22600000      -1.86380000       1.01470000
