23
Properties=species:S:1:pos:R:3 gdb_58430=T pbc="F F F"
C        0.03110000       1.53220000      -0.08400000
C        0.06470000      -0.00630000      -0.10120000
C        0.77910000      -0.52930000      -1.35670000
C        0.72290000      -0.56390000       1.17490000
O        2.05870000      -0.08820000       1.26290000
C       -0.08590000      -0.63810000       2.52570000
C       -0.86520000      -1.84450000       1.92510000
C        0.62320000      -2.07980000       1.53440000
C        0.96750000      -1.68380000       3.00530000
H        1.03680000       1.96240000      -0.16240000
H       -0.53940000       1.91260000      -0.93680000
H       -0.43820000       1.91840000       0.82760000
H       -0.97470000      -0.34280000      -0.13960000
H        1.84020000      -0.26600000      -1.33170000
H        0.70660000      -1.61910000      -1.43030000
H        0.33800000      -0.10280000      -2.26360000
H        2.03020000       0.87050000       1.33790000
H       -0.50010000       0.19410000       3.09960000
H       -1.26500000      -2.54810000       2.65880000
H       -1.59330000      -1.66270000       1.13500000
H        1.03410000      -2.91340000       0.96260000
H        1.97500000      -1.32420000       3.19640000
H        0.62210000      -2.38060000       3.77300000
