16
Properties=species:S:1:pos:R:3 gdb_51690=T pbc="F F F"
N       -0.39370000       1.13030000      -0.05980000
C       -0.13120000      -0.09240000       0.04350000
O        0.89900000      -0.66390000       0.73380000
C        0.93770000      -2.06250000       0.44250000
C       -0.47890000      -2.34330000      -0.08400000
C       -1.44780000      -2.86000000       0.98740000
C       -2.87420000      -2.97600000       0.47940000
O       -3.52180000      -3.98930000       0.53580000
O       -0.88980000      -1.05050000      -0.54910000
H        0.31280000       1.68460000       0.41750000
H        1.70570000      -2.25920000      -0.31360000
H        1.17850000      -2.60640000       1.35800000
H       -0.47010000      -3.01290000      -0.94770000
H       -1.12690000      -3.84290000       1.34510000
H       -1.43700000      -2.15780000       1.83260000
H       -3.28920000      -2.04390000       0.04290000
