23
Properties=species:S:1:pos:R:3 gdb_63212=T pbc="F F F"
C       -0.04770000       1.58150000      -0.03920000
C       -0.00990000       0.04640000       0.01130000
C       -1.45440000      -0.49920000      -0.05860000
C        0.79850000      -0.52990000      -1.13950000
C        1.64940000      -1.47940000      -0.76160000
C        1.59850000      -1.72050000       0.72600000
C        0.75520000      -0.53940000       1.23450000
C        1.34300000       0.33750000       2.31510000
C        0.17560000      -0.56750000       2.62270000
H        0.95940000       2.00770000      -0.03800000
H       -0.55510000       1.91770000      -0.95020000
H       -0.59930000       2.00040000       0.81020000
H       -1.92910000      -0.22040000      -1.00600000
H       -1.46740000      -1.59060000       0.01500000
H       -2.07040000      -0.09610000       0.75250000
H        0.63290000      -0.20270000      -2.16150000
H        2.28920000      -2.05010000      -1.42590000
H        1.13000000      -2.69120000       0.94800000
H        2.59280000      -1.74980000       1.18860000
H        2.32020000       0.06770000       2.70340000
H        1.15930000       1.40520000       2.29010000
H       -0.78980000      -0.10030000       2.79030000
H        0.34710000      -1.45000000       3.23130000
