20
Properties=species:S:1:pos:R:3 gdb_92104=T pbc="F F F"
C       -0.06210000       1.52060000       0.03680000
C        0.03940000       0.02430000      -0.00760000
C        0.82600000      -0.79540000      -1.02270000
N       -0.14700000      -1.94420000      -0.85770000
C        0.38630000      -2.89040000       0.13960000
C        0.61810000      -2.08160000       1.45350000
O        1.97250000      -1.67970000       1.66050000
C       -0.24940000      -0.85900000       1.21050000
C       -1.03250000      -1.03910000      -0.06190000
H        0.86980000       1.96870000       0.40040000
H       -0.26470000       1.93040000      -0.95950000
H       -0.86770000       1.84790000       0.70230000
H        0.74890000      -0.38860000      -2.03670000
H        1.86790000      -1.03320000      -0.79220000
H       -0.36260000      -3.67350000       0.30570000
H        1.30510000      -3.36200000      -0.22370000
H        0.26110000      -2.64030000       2.33150000
H        2.48450000      -2.46710000       1.87050000
H       -0.70790000      -0.34880000       2.05000000
H       -2.10830000      -1.01070000      -0.18690000
