15
Properties=species:S:1:pos:R:3 gdb_44648=T pbc="F F F"
O       -0.39330000       0.27130000       0.39490000
C       -0.12100000       1.36190000       0.01240000
O       -0.95000000       2.25880000      -0.63170000
C        0.11460000       3.24240000      -0.75110000
C        0.18930000       4.26110000       0.44150000
O       -0.81720000       4.10010000       1.44240000
C        0.04810000       3.25370000       2.24830000
C        1.16560000       3.31650000       1.18810000
C        1.08870000       2.30100000      -0.00570000
H        0.22740000       3.59690000      -1.77460000
H        0.38780000       5.30370000       0.17980000
H        0.30120000       3.74320000       3.19550000
H       -0.39640000       2.27380000       2.45070000
H        2.16680000       3.59910000       1.50530000
H        2.02130000       1.91240000      -0.40830000
