20
Properties=species:S:1:pos:R:3 gdb_120714=T pbc="F F F"
C        0.29450000       1.40590000      -0.18600000
O        0.60250000       0.03390000      -0.26130000
C       -0.22350000      -0.65880000      -1.17660000
C        0.19700000      -2.10500000      -1.16860000
N       -0.03240000      -2.85580000      -2.39480000
C        1.35950000      -2.59890000      -1.98760000
C        2.18100000      -1.65480000      -2.82260000
C        3.67730000      -1.72340000      -2.57850000
O        1.68720000      -0.87630000      -3.60590000
H        0.41470000       1.90440000      -1.16010000
H       -0.73780000       1.57480000       0.16040000
H        0.98430000       1.85760000       0.53130000
H       -1.28320000      -0.58380000      -0.87660000
H       -0.12790000      -0.25360000      -2.19150000
H        0.06250000      -2.61070000      -0.21340000
H       -0.27590000      -3.82100000      -2.18950000
H        1.92000000      -3.41890000      -1.54320000
H        3.89290000      -1.54680000      -1.51840000
H        4.05950000      -2.72180000      -2.82140000
H        4.18630000      -0.97670000      -3.18830000
