16
Properties=species:S:1:pos:R:3 gdb_79600=T pbc="F F F"
O       -0.30880000       1.34650000      -0.20380000
C       -0.23980000      -0.03850000      -0.07280000
C       -0.46420000      -0.75370000       1.23740000
C       -1.48880000      -0.03080000       2.08340000
N       -2.73460000      -0.75150000       2.23980000
C       -2.49800000      -0.09900000       0.94010000
C       -3.45440000       0.94280000       0.51350000
O       -3.63450000       1.26170000      -0.63500000
C       -1.49890000      -0.82710000       0.07140000
H        0.52010000       1.72010000       0.11450000
H        0.50610000      -0.51840000      -0.71040000
H        0.19780000      -1.53500000       1.59520000
H       -1.30720000       0.81040000       2.74170000
H       -2.61430000      -1.75990000       2.17040000
H       -4.01210000       1.40610000       1.35590000
H       -1.73050000      -1.66610000      -0.57420000
