11
Properties=species:S:1:pos:R:3 gdb_25375=T pbc="F F F"
O       -0.17220000       0.10030000      -0.00220000
C        0.01890000       1.28740000       0.00710000
C        1.36820000       1.89480000      -0.00250000
N        2.54080000       1.32500000      -0.02060000
C        3.43290000       2.36230000      -0.02130000
C        2.74340000       3.54710000      -0.00290000
O        1.41420000       3.25240000       0.00960000
C        3.14640000       4.89820000       0.00480000
N        3.50300000       5.99980000       0.01080000
H       -0.79760000       2.03660000       0.02310000
H        4.50090000       2.21330000      -0.03470000
