18
Properties=species:S:1:pos:R:3 gdb_102038=T pbc="F F F"
C       -0.75730000       1.45830000       0.64030000
N       -1.03650000       0.04080000       0.53160000
C       -0.46410000      -0.74640000      -0.40300000
O        0.33400000      -0.38640000      -1.25210000
C       -0.91270000      -2.22070000      -0.35600000
O       -1.82600000      -2.44190000       0.68210000
C       -1.97270000      -3.79870000       1.07610000
C       -1.45460000      -2.59910000      -1.73960000
O       -2.48770000      -3.19080000      -1.90770000
H       -0.04660000       1.71610000      -0.14580000
H       -1.66860000       2.05150000       0.50820000
H       -0.31870000       1.70260000       1.61390000
H       -1.67600000      -0.41080000       1.16720000
H        0.01640000      -2.80230000      -0.21550000
H       -2.64630000      -3.80410000       1.93550000
H       -2.40420000      -4.40180000       0.27250000
H       -1.00510000      -4.22540000       1.37960000
H       -0.80050000      -2.27430000      -2.57310000
