17
Properties=species:S:1:pos:R:3 gdb_17547=T pbc="F F F"
C       -0.63710000       1.26130000       0.00730000
O        0.78790000       1.11690000      -0.00860000
C       -0.00420000      -0.06420000      -0.00020000
C        0.05650000      -0.98540000       1.21780000
C       -0.44220000      -2.31160000       0.67470000
C       -1.69830000      -2.30210000      -0.11870000
N       -0.39980000      -2.31560000      -0.80950000
C        0.04680000      -0.97930000      -1.22960000
H       -1.05480000       1.65900000       0.93220000
H       -1.07560000       1.65890000      -0.90780000
H        1.09730000      -1.07550000       1.54940000
H       -0.53000000      -0.61160000       2.06180000
H       -0.12030000      -3.22660000       1.16290000
H       -2.27730000      -3.21420000      -0.22880000
H       -2.28970000      -1.38840000      -0.13550000
H       -0.55870000      -0.61160000      -2.06360000
H        1.08440000      -1.05540000      -1.57480000
