17
Properties=species:S:1:pos:R:3 gdb_83932=T pbc="F F F"
O        0.07030000       1.35550000      -0.13520000
C       -0.00850000      -0.01980000       0.00980000
C       -0.41050000      -0.70890000       1.26740000
C       -1.15470000       0.13190000       2.28950000
O       -2.09050000       0.91080000       1.53890000
C       -2.54440000       0.11560000       0.43380000
C       -1.36060000      -0.75270000       0.04850000
C       -1.56900000      -1.96560000      -0.75480000
O       -2.63660000      -2.30590000      -1.20950000
H       -0.62050000       1.74660000       0.42070000
H        0.76140000      -0.50490000      -0.58300000
H        0.11210000      -1.59940000       1.59900000
H       -1.66700000      -0.51330000       3.01800000
H       -0.51500000       0.83390000       2.83340000
H       -3.39950000      -0.51380000       0.71170000
H       -2.86100000       0.80800000      -0.35070000
H       -0.64810000      -2.56750000      -0.93450000
