17
Properties=species:S:1:pos:R:3 gdb_34097=T pbc="F F F"
N        0.06430000      -1.11670000       0.06780000
C        0.04270000       0.03760000       0.01680000
C       -0.01370000       1.49010000      -0.01670000
C       -1.01950000       2.16860000       1.00000000
C       -1.48030000       3.06540000      -0.14780000
C       -0.28810000       3.58000000      -0.94360000
C        1.09730000       3.54230000      -0.31060000
N        1.31580000       2.10140000      -0.04320000
C       -0.78720000       2.18650000      -1.17380000
H       -1.80560000       1.47740000       1.31180000
H       -0.56440000       2.62710000       1.88460000
H       -2.44860000       3.54410000      -0.22320000
H       -0.50580000       4.33450000      -1.69010000
H        1.86180000       3.91680000      -1.00060000
H        1.14350000       4.15730000       0.59930000
H        1.80870000       1.94570000       0.83030000
H       -1.11320000       1.74430000      -2.10390000
