18
Properties=species:S:1:pos:R:3 gdb_36100=T pbc="F F F"
C       -0.19090000      -1.24600000       0.15250000
C       -0.09570000      -0.05360000       0.03970000
C        0.03260000       1.39600000      -0.09100000
C        1.46100000       1.87240000      -0.04260000
N        1.86260000       3.19980000      -0.56770000
C        2.51290000       1.95390000      -1.07130000
C        3.59340000       1.50250000      -0.04730000
C        3.65290000       2.39950000       1.16070000
C        2.51330000       1.42540000       1.02380000
H       -0.27960000      -2.29960000       0.25000000
H       -0.42170000       1.72010000      -1.03740000
H       -0.54440000       1.88470000       0.70750000
H        1.17030000       3.47110000      -1.26650000
H        2.48810000       1.70150000      -2.12380000
H        4.35470000       0.77050000      -0.28100000
H        4.39920000       2.11010000       1.89440000
H        3.48430000       3.46430000       1.06640000
H        2.32250000       0.62260000       1.72310000
