19
Properties=species:S:1:pos:R:3 gdb_115811=T pbc="F F F"
C       -0.28600000       1.28390000       0.03240000
O       -0.08360000      -0.11900000       0.03260000
C        0.70390000      -0.57080000       1.07750000
O        0.05020000      -0.36770000       2.32910000
C        0.26640000      -1.47450000       3.19450000
C        0.68330000      -2.63750000       2.30850000
C        1.32720000      -3.86490000       2.88670000
O       -0.25010000      -2.82110000       1.23340000
C        0.93660000      -2.06400000       0.98370000
H        0.67300000       1.82450000       0.02680000
H       -0.83520000       1.52410000      -0.88020000
H       -0.86780000       1.60440000       0.90360000
H        1.67180000      -0.03060000       1.08200000
H        1.06080000      -1.25620000       3.92560000
H       -0.66280000      -1.67300000       3.74040000
H        0.64620000      -4.36660000       3.58290000
H        1.58000000      -4.57160000       2.09300000
H        2.23970000      -3.60820000       3.43440000
H        1.63550000      -2.46910000       0.25760000
