15
Properties=species:S:1:pos:R:3 gdb_131738=T pbc="F F F"
O        0.20440000       1.17260000      -0.58390000
C       -0.01740000       0.00350000       0.19420000
C       -1.41680000      -0.52590000       0.06600000
N       -2.11080000      -0.84970000       1.15040000
N       -3.29790000      -1.29640000       0.67440000
C       -3.38540000      -1.25790000      -0.66540000
C       -2.17460000      -0.75610000      -1.12170000
C       -1.81300000      -0.53110000      -2.52150000
O       -2.53810000      -0.80300000      -3.45620000
H       -0.40820000       1.84930000      -0.27690000
H        0.70330000      -0.73080000      -0.18160000
H        0.19760000       0.16220000       1.25930000
H       -3.99890000      -1.59870000       1.33080000
H       -4.26390000      -1.57080000      -1.20630000
H       -0.81530000      -0.07610000      -2.67680000
