16
Properties=species:S:1:pos:R:3 gdb_43539=T pbc="F F F"
O        0.06040000       0.31550000      -1.19200000
C       -0.00010000       1.23420000      -0.42410000
C       -1.12450000       1.90330000       0.38930000
C       -0.12880000       3.08160000       0.71440000
C        0.04290000       3.44580000       2.10490000
C        0.20030000       3.73190000       3.26220000
C        1.00170000       2.25390000       0.04680000
C        2.37970000       1.94580000       0.51620000
N        2.15960000       2.76100000      -0.67720000
H       -2.02110000       2.17020000      -0.17380000
H       -1.41170000       1.32100000       1.26850000
H       -0.35690000       3.96550000       0.11110000
H        0.33040000       3.99450000       4.28300000
H        2.75230000       2.48770000       1.38060000
H        2.72970000       0.92260000       0.40690000
H        2.28900000       2.20270000      -1.52070000
