16
Properties=species:S:1:pos:R:3 gdb_10326=T pbc="F F F"
C       -0.25100000       1.34820000       0.23680000
O       -0.30690000      -0.05150000       0.03730000
C        0.51960000      -0.50240000      -0.99430000
C        1.97500000      -0.61400000      -0.52130000
O        2.92640000      -0.75850000      -1.24290000
C        0.04490000      -1.90990000      -1.45020000
C        0.59790000      -2.36720000      -2.78070000
O       -0.70650000      -2.55390000      -0.76870000
H        0.75710000       1.69270000       0.51250000
H       -0.56760000       1.89510000      -0.66400000
H       -0.93720000       1.57910000       1.05380000
H        0.49920000       0.16040000      -1.87500000
H        2.06010000      -0.58000000       0.58730000
H        1.65960000      -2.11930000      -2.86770000
H        0.43470000      -3.43880000      -2.90100000
H        0.07480000      -1.83460000      -3.58450000
