19
Properties=species:S:1:pos:R:3 gdb_42883=T pbc="F F F"
O       -0.00320000       0.02120000       0.12200000
C       -0.02600000       1.21670000       0.05500000
C       -1.13900000       2.27960000       0.07720000
C       -0.03710000       3.28490000       0.55100000
C        1.06260000       2.30590000       0.03680000
C        1.55050000       2.65190000      -1.38590000
O        0.56510000       3.24930000      -2.20350000
C       -0.58030000       2.44480000      -2.44840000
C       -1.65230000       2.55590000      -1.35040000
H       -1.97330000       2.09680000       0.75870000
H       -0.05490000       4.26700000       0.07800000
H       -0.02040000       3.39310000       1.63720000
H        1.92700000       2.10560000       0.67640000
H        2.35640000       3.38930000      -1.32180000
H        1.95450000       1.74330000      -1.86130000
H       -0.99950000       2.79130000      -3.39830000
H       -0.28090000       1.39400000      -2.58590000
H       -2.44720000       1.84000000      -1.59060000
H       -2.09630000       3.55740000      -1.37970000
