17
Properties=species:S:1:pos:R:3 gdb_45043=T pbc="F F F"
N       -0.09160000       1.15780000      -0.59000000
C       -0.02280000       0.01740000      -0.05220000
O        1.10250000      -0.54520000       0.48040000
C        0.82940000      -1.86320000       0.94000000
C       -0.07070000      -1.98760000       2.13130000
C       -0.62430000      -2.17210000       0.72680000
C       -1.17330000      -0.94060000       0.06920000
C       -2.55600000      -0.40710000       0.19250000
N       -2.11680000      -1.05200000      -1.05060000
H        0.81140000       1.63090000      -0.58730000
H        1.65060000      -2.54140000       0.74840000
H        0.03310000      -2.87630000       2.74410000
H       -0.32430000      -1.08250000       2.67410000
H       -0.97730000      -3.13930000       0.39420000
H       -3.28610000      -0.96950000       0.76800000
H       -2.66390000       0.67340000       0.20550000
H       -1.87760000      -0.32950000      -1.72930000
