15
Properties=species:S:1:pos:R:3 gdb_48572=T pbc="F F F"
O       -0.56250000       0.78960000      -0.67450000
C        0.13910000       1.12860000       0.24340000
C        1.39620000       1.91730000       0.07050000
C        2.86020000       1.39190000       0.23210000
C        2.91270000       2.92830000       0.00820000
C        1.86870000       2.76300000      -1.13930000
N        1.79440000       3.02950000       1.04200000
C        4.06770000       3.79300000       0.03620000
N        4.99250000       4.48620000       0.03760000
H       -0.09440000       0.86720000       1.29850000
H        3.13360000       1.06270000       1.23330000
H        3.24730000       0.76070000      -0.56670000
H        2.18620000       2.23910000      -2.04310000
H        1.27120000       3.64910000      -1.36480000
H        1.23390000       3.86410000       0.83630000
