20
Properties=species:S:1:pos:R:3 gdb_94205=T pbc="F F F"
C       -0.28630000       1.45080000       0.11180000
C        0.05450000      -0.02470000       0.01470000
O        1.15460000      -0.28350000      -0.89230000
C        2.00920000      -0.74770000       0.16890000
C        0.85250000      -0.67100000       1.19730000
O        1.05300000       0.10510000       2.35480000
C        0.31920000      -2.01590000       1.63320000
C        0.75120000      -2.63590000       2.90820000
N       -0.62170000      -2.11250000       2.75630000
H        0.58950000       2.05670000       0.37150000
H       -0.65180000       1.81040000      -0.85450000
H       -1.06630000       1.62060000       0.86070000
H       -0.83450000      -0.59650000      -0.28030000
H        2.42200000      -1.74340000      -0.03050000
H        2.83620000      -0.05430000       0.37870000
H        1.34490000       0.98420000       2.09660000
H        0.07720000      -2.66530000       0.79410000
H        0.82410000      -3.71700000       2.98410000
H        1.44340000      -2.07710000       3.52950000
H       -0.66150000      -1.20230000       3.21100000
