23
Properties=species:S:1:pos:R:3 gdb_103625=T pbc="F F F"
C        0.77800000       1.54100000      -0.04230000
C        0.05250000       0.19750000      -0.03580000
C        0.62790000      -0.89210000      -0.98890000
C        1.15670000      -1.71590000       0.23030000
C        0.71990000      -3.17800000       0.28920000
C        2.66900000      -1.60590000       0.40680000
O        3.29120000      -2.26970000      -0.68550000
C        0.35980000      -0.74580000       1.17230000
O        0.97270000      -0.22310000       2.33090000
H        1.86750000       1.43070000       0.01870000
H        0.57020000       2.08280000      -0.97070000
H        0.45470000       2.17160000       0.79300000
H       -1.01820000       0.38260000      -0.16430000
H       -0.13750000      -1.42100000      -1.56180000
H        1.40060000      -0.55480000      -1.68440000
H        1.22920000      -3.76760000      -0.47800000
H        0.95580000      -3.61630000       1.26650000
H       -0.36010000      -3.27020000       0.13310000
H        2.98330000      -0.54950000       0.43680000
H        2.95770000      -2.05690000       1.36850000
H        4.24200000      -2.25510000      -0.54420000
H       -0.54830000      -1.23770000       1.53360000
H        1.67880000       0.37240000       2.06180000
