14
Properties=species:S:1:pos:R:3 gdb_30419=T pbc="F F F"
C       -0.12090000       1.44710000       0.05510000
N       -0.25050000       0.01170000       0.21460000
C        0.55180000      -0.65700000       0.91400000
O        1.63000000      -0.03750000       1.58570000
C        2.53930000      -0.67170000       2.35670000
O        3.42470000      -0.09330000       2.89580000
O        2.40360000      -2.02620000       2.49800000
C        1.38430000      -2.69080000       1.87660000
C        0.47640000      -2.08840000       1.11210000
H        0.72390000       1.89300000       0.58810000
H       -0.02850000       1.67150000      -1.01340000
H       -1.04870000       1.92030000       0.39550000
H        1.42450000      -3.74980000       2.09280000
H       -0.32080000      -2.63460000       0.63080000
