15
Properties=species:S:1:pos:R:3 gdb_101994=T pbc="F F F"
O        0.11230000       1.41660000      -0.22520000
C        0.07120000       0.02900000       0.01690000
C       -1.38530000      -0.51290000       0.04940000
C       -2.10840000      -0.08560000      -1.23870000
O       -3.06810000       0.63180000      -1.25800000
C       -1.40300000      -1.95980000       0.16940000
C       -1.39670000      -3.16880000       0.23840000
C       -1.39600000      -4.52650000       0.31850000
C       -1.39330000      -5.73180000       0.39030000
H       -0.29850000       1.87310000       0.51670000
H        0.61180000      -0.44310000      -0.80900000
H        0.57580000      -0.25650000       0.94990000
H       -1.92840000      -0.05190000       0.88450000
H       -1.65740000      -0.50410000      -2.16450000
H       -1.39430000      -6.79190000       0.45230000
