19
Properties=species:S:1:pos:R:3 gdb_116936=T pbc="F F F"
O       -0.15670000       1.54460000      -0.44840000
C       -0.28980000       0.14780000      -0.64820000
C       -0.82210000      -0.43990000       0.66390000
C       -1.00100000      -1.88370000       0.59950000
C       -1.14210000      -3.07760000       0.51620000
C       -1.31220000      -4.51680000       0.43520000
C       -1.83260000      -5.25980000       1.69800000
C       -2.97320000      -5.73050000       0.77690000
O       -2.48420000      -4.93020000      -0.32030000
H        0.15320000       1.93900000      -1.26850000
H       -0.99180000      -0.08400000      -1.46260000
H        0.67320000      -0.32350000      -0.89520000
H       -0.12330000      -0.17930000       1.46850000
H       -1.77060000       0.05440000       0.90640000
H       -0.40900000      -4.97470000       0.00860000
H       -1.17190000      -6.03280000       2.09140000
H       -2.13850000      -4.59220000       2.50320000
H       -2.96670000      -6.80080000       0.53470000
H       -3.98770000      -5.44020000       1.07320000
