17
Properties=species:S:1:pos:R:3 gdb_28173=T pbc="F F F"
N        0.17980000       1.38990000      -0.02210000
C       -0.00600000      -0.01360000      -0.01930000
C       -1.12150000      -0.83050000      -0.08900000
C       -0.64190000      -2.16980000      -0.06770000
C        0.73560000      -2.12290000       0.01640000
C        1.33560000      -3.49240000       0.05780000
C        0.07440000      -4.34870000      -0.02190000
C       -1.03130000      -3.57970000      -0.09200000
N        1.12310000      -0.81800000       0.04400000
H       -0.36770000       1.83120000      -0.75260000
H       -0.10110000       1.81260000       0.85780000
H       -2.14270000      -0.48320000      -0.14070000
H        2.01630000      -3.70240000      -0.77880000
H        1.90110000      -3.69650000       0.97740000
H        0.10730000      -5.42980000      -0.02140000
H       -2.04830000      -3.94650000      -0.15630000
H        2.05550000      -0.44120000       0.06790000
