15
Properties=species:S:1:pos:R:3 gdb_27498=T pbc="F F F"
N        0.05470000       1.38560000       0.04250000
C       -0.04520000       0.00970000       0.07670000
C       -1.20740000      -0.68380000      -0.07250000
C       -1.22040000      -2.11990000       0.05450000
O       -2.18400000      -2.85440000      -0.05720000
N        0.04990000      -2.68640000       0.32240000
C        1.24720000      -2.02330000       0.49790000
N        2.39610000      -2.49960000       0.78640000
N        1.13380000      -0.64440000       0.32780000
H        0.90550000       1.75750000      -0.35640000
H       -0.76730000       1.85290000      -0.30940000
H       -2.13720000      -0.18560000      -0.30420000
H        0.04620000      -3.69110000       0.41760000
H        2.36690000      -3.51010000       0.89490000
H        1.96770000      -0.13270000       0.57100000
