18
Properties=species:S:1:pos:R:3 gdb_37717=T pbc="F F F"
C       -0.04100000       1.56700000       0.03330000
N        1.46760000       1.27190000      -0.01120000
C        1.23070000       0.06480000       0.92470000
C        1.89720000      -0.96180000      -0.00260000
C        1.24190000      -2.35700000       0.03190000
C       -0.27800000      -2.31730000       0.07920000
C       -0.94230000      -1.15680000       0.08860000
C       -0.05860000       0.03910000       0.04900000
C        1.17320000       0.04660000      -0.90630000
H       -0.35310000       2.09990000       0.93820000
H       -0.40960000       2.08200000      -0.86060000
H        1.28030000       0.17630000       2.01000000
H        2.99040000      -0.99340000      -0.03660000
H        1.56190000      -2.93730000      -0.84540000
H        1.61670000      -2.92000000       0.89860000
H       -0.79820000      -3.27070000       0.10500000
H       -2.02500000      -1.09430000       0.12200000
H        1.15450000       0.13660000      -1.99450000
