21
Properties=species:S:1:pos:R:3 gdb_88562=T pbc="F F F"
O        0.03990000       1.26220000       1.02710000
C        0.04920000       0.04210000       0.34570000
C       -0.57010000      -1.11080000       1.07040000
C       -1.25330000      -0.55260000      -0.16430000
C       -2.53110000       0.20610000      -0.12440000
C       -3.21360000       0.71040000       1.11520000
C       -3.96470000      -0.24000000       0.22500000
C       -4.52570000       0.51240000      -0.98440000
C       -3.07750000       0.98150000      -1.34050000
H       -0.15870000       1.95720000       0.39110000
H        0.94880000      -0.14600000      -0.24110000
H       -0.10450000      -2.08770000       1.00490000
H       -1.00110000      -0.87840000       2.03740000
H       -1.14250000      -1.16150000      -1.06020000
H       -2.86120000       0.29180000       2.05090000
H       -3.51800000       1.75330000       1.18890000
H       -4.30300000      -1.20430000       0.58610000
H       -4.94570000      -0.14430000      -1.74960000
H       -5.25720000       1.29670000      -0.76120000
H       -2.89190000       2.06190000      -1.34660000
H       -2.73270000       0.56800000      -2.29210000
