17
Properties=species:S:1:pos:R:3 gdb_8303=T pbc="F F F"
O        0.35800000       1.35050000       0.30900000
C        0.13090000      -0.00360000      -0.04370000
C       -1.28990000      -0.46760000       0.29440000
C       -1.52640000      -1.92770000      -0.02980000
C       -2.97680000      -2.45750000      -0.02800000
C       -2.73490000      -2.67890000      -1.50610000
N       -3.41380000      -3.13590000      -2.45490000
O       -1.44250000      -2.19350000      -1.47820000
H       -0.16860000       1.90160000      -0.27850000
H        0.33580000      -0.18800000      -1.10800000
H        0.85870000      -0.58640000       0.53210000
H       -1.47490000      -0.30620000       1.36360000
H       -2.01880000       0.14240000      -0.25620000
H       -0.81140000      -2.57430000       0.48990000
H       -3.16040000      -3.36580000       0.54760000
H       -3.74630000      -1.71780000       0.20220000
H       -2.88330000      -3.12830000      -3.32780000
