18
Properties=species:S:1:pos:R:3 gdb_588=T pbc="F F F"
C       -0.08880000       1.52380000      -0.00400000
C       -0.09340000      -0.00200000      -0.12880000
C        0.91550000      -0.52520000      -1.15980000
C        0.92180000      -2.03440000      -1.28130000
C       -0.06740000      -2.73310000      -2.18150000
C        1.39850000      -2.70440000      -2.54420000
H        0.89710000       1.89380000       0.29920000
H       -0.33870000       2.00010000      -0.95890000
H       -0.81560000       1.86760000       0.73870000
H        0.12640000      -0.45060000       0.84910000
H       -1.09780000      -0.34940000      -0.40160000
H        0.69250000      -0.08580000      -2.14220000
H        1.92200000      -0.17290000      -0.89280000
H        1.15980000      -2.55380000      -0.35540000
H       -0.49900000      -3.67250000      -1.85370000
H       -0.74330000      -2.11540000      -2.76460000
H        1.70270000      -2.06870000      -3.36960000
H        1.96760000      -3.62390000      -2.46120000
