19
Properties=species:S:1:pos:R:3 gdb_114862=T pbc="F F F"
O       -0.08370000       1.48600000      -0.02600000
C        0.02680000       0.07050000      -0.03760000
C       -1.37950000      -0.51060000       0.06220000
C       -1.39540000      -2.07860000      -0.00780000
C       -2.62370000      -2.43800000       0.84070000
O       -2.54220000      -3.32390000       2.01450000
C       -3.05780000      -2.26230000       2.87830000
C       -2.75590000      -1.28130000       1.77390000
C       -2.03340000      -0.22710000       1.41870000
H        0.80230000       1.85950000      -0.03250000
H        0.50610000      -0.28650000      -0.96360000
H        0.63230000      -0.29090000       0.80970000
H       -1.96020000      -0.08240000      -0.76660000
H       -1.42330000      -2.46420000      -1.03080000
H       -0.49940000      -2.47140000       0.48680000
H       -3.49870000      -2.71970000       0.23960000
H       -4.11930000      -2.42480000       3.10770000
H       -2.49180000      -2.16040000       3.81020000
H       -1.80200000       0.66080000       1.99340000
