18
Properties=species:S:1:pos:R:3 gdb_92076=T pbc="F F F"
O        0.15100000       1.32530000       0.36380000
C       -0.01200000      -0.02230000       0.03390000
C       -1.48970000      -0.38380000      -0.21440000
C       -1.62980000      -1.85870000      -0.56880000
C       -1.83550000      -2.27140000      -1.98410000
N       -0.56400000      -2.54810000      -1.32430000
C        0.61930000      -1.79380000      -1.74450000
C        0.75590000      -0.36820000      -1.22950000
O        1.44850000       0.46440000      -1.77480000
H        0.78500000       1.67290000      -0.28480000
H        0.37170000      -0.67250000       0.84020000
H       -2.06670000      -0.14940000       0.68370000
H       -1.86810000       0.26440000      -1.01200000
H       -2.04920000      -2.48450000       0.21570000
H       -2.42930000      -3.14640000      -2.23550000
H       -1.87360000      -1.47140000      -2.72350000
H        1.50470000      -2.32490000      -1.36330000
H        0.71510000      -1.78330000      -2.83480000
