19
Properties=species:S:1:pos:R:3 gdb_74913=T pbc="F F F"
C        0.08240000       1.46840000       0.01930000
C       -0.07010000      -0.01830000      -0.02400000
C       -0.13930000      -0.81420000      -1.10600000
C       -0.02710000      -2.23890000      -0.64280000
O        1.37310000      -2.38790000      -0.12910000
C        0.89760000      -2.13320000       1.17410000
C        1.75610000      -2.54500000       2.32300000
C       -0.54250000      -2.25550000       0.82400000
C       -0.06010000      -0.86990000       1.19600000
H        1.04870000       1.75140000       0.45540000
H        0.02240000       1.90590000      -0.98070000
H       -0.69110000       1.93260000       0.64360000
H       -0.06000000      -0.50170000      -2.13950000
H       -0.26470000      -3.04900000      -1.33000000
H        2.71580000      -2.01790000       2.28830000
H        1.26980000      -2.30720000       3.27330000
H        1.95870000      -3.62050000       2.29360000
H       -1.37970000      -2.79180000       1.25380000
H       -0.28300000      -0.46640000       2.17760000
