20
Properties=species:S:1:pos:R:3 gdb_33164=T pbc="F F F"
C       -0.00030000       1.56660000      -0.01250000
C        0.01310000       0.03630000      -0.01700000
C       -1.40200000      -0.55420000       0.03180000
N       -1.42270000      -2.00660000       0.00710000
C       -1.57750000      -2.80870000      -1.11320000
C       -1.48150000      -4.11750000      -0.72050000
C       -1.25120000      -4.13480000       0.68980000
C       -1.22020000      -2.81920000       1.08730000
O       -1.03130000      -2.21750000       2.29470000
H        1.01600000       1.97000000      -0.03770000
H       -0.53710000       1.96470000      -0.88100000
H       -0.49030000       1.95710000       0.88650000
H        0.52120000      -0.33710000      -0.91380000
H        0.57660000      -0.33840000       0.84440000
H       -1.91390000      -0.21790000       0.93920000
H       -1.99020000      -0.20300000      -0.82250000
H       -1.75140000      -2.36110000      -2.07820000
H       -1.57190000      -4.97920000      -1.36390000
H       -1.12910000      -4.99790000       1.32610000
H       -0.96580000      -2.90540000       2.96320000
