20
Properties=species:S:1:pos:R:3 gdb_77943=T pbc="F F F"
C       -0.14940000       1.60820000      -0.00130000
C       -0.03160000       0.09040000       0.01480000
C        1.11120000      -0.69820000      -0.72650000
C        2.08690000      -0.37120000       0.44070000
O        2.64790000       0.91720000       0.46940000
C        0.72000000      -0.70490000       1.14250000
C        0.68640000      -1.88540000       0.15750000
C       -0.19520000      -3.03640000      -0.05180000
N        1.24390000      -3.21120000       0.32390000
H        0.79460000       2.10920000       0.19850000
H       -0.52120000       1.94200000      -0.97710000
H       -0.88380000       1.92880000       0.74720000
H       -1.01610000      -0.34420000      -0.19540000
H        1.33660000      -0.70990000      -1.79460000
H        2.86200000      -1.12970000       0.60830000
H        3.15620000       0.99880000       1.28220000
H        0.50050000      -0.72960000       2.21070000
H       -0.89980000      -3.34760000       0.71480000
H       -0.49370000      -3.28750000      -1.06690000
H        1.77890000      -3.48370000      -0.49820000
