19
Properties=species:S:1:pos:R:3 gdb_19354=T pbc="F F F"
C       -0.13530000       1.49940000       0.02080000
C        0.07950000      -0.01990000       0.02350000
C        0.70490000      -0.50410000      -1.25020000
C       -0.05190000      -0.89350000      -2.49030000
C        0.89360000      -1.88010000      -1.84850000
C        2.36850000      -1.50060000      -2.06370000
C        2.59870000      -0.26560000      -2.83940000
N        2.18350000      -0.14870000      -1.42680000
H        0.81450000       2.01670000      -0.14460000
H       -0.82600000       1.79880000      -0.77430000
H       -0.54710000       1.84120000       0.97510000
H        0.72950000      -0.29630000       0.86240000
H       -0.87430000      -0.54040000       0.17310000
H       -1.09740000      -1.10900000      -2.28870000
H        0.10900000      -0.47330000      -3.47710000
H        0.57590000      -2.84470000      -1.47470000
H        3.18100000      -2.14680000      -1.74630000
H        3.63320000       0.03830000      -2.97550000
H        1.94400000       0.04520000      -3.64490000
