19
Properties=species:S:1:pos:R:3 gdb_12669=T pbc="F F F"
C       -0.79810000       1.23460000      -0.05860000
C        0.08150000      -0.01270000      -0.03230000
C        1.24850000       0.02390000      -1.04830000
N        2.19470000      -0.91170000      -0.47070000
C        2.02980000      -1.13800000       0.87000000
O        2.76240000      -1.79750000       1.57550000
C        0.77800000      -0.36000000       1.30900000
C        1.21620000       0.83260000       2.17390000
H       -0.22950000       2.13850000       0.18040000
H       -1.24120000       1.37450000      -1.05070000
H       -1.61940000       1.15520000       0.66070000
H       -0.53850000      -0.87690000      -0.29960000
H        0.93120000      -0.28860000      -2.04880000
H        1.67240000       1.03620000      -1.13540000
H        3.03940000      -1.20980000      -0.93250000
H        0.15590000      -1.02040000       1.91960000
H        1.83740000       1.53840000       1.61150000
H        0.35310000       1.37930000       2.56370000
H        1.80700000       0.46970000       3.01890000
