21
Properties=species:S:1:pos:R:3 gdb_69548=T pbc="F F F"
C       -0.01140000       1.51980000      -0.02040000
C        0.00360000       0.00710000       0.01200000
C       -1.37010000      -0.74380000      -0.01650000
C       -0.98260000      -1.50790000       1.29140000
C        0.39380000      -0.78130000       1.30350000
C        1.59060000      -1.39640000       0.53970000
O        2.85510000      -1.52570000       1.09230000
C        1.17540000      -2.15330000      -0.68700000
C        1.20410000      -0.63880000      -0.72590000
H        0.97490000       1.92880000       0.22660000
H       -0.28390000       1.89050000      -1.01680000
H       -0.73380000       1.92650000       0.69580000
H       -2.22290000      -0.07170000       0.11150000
H       -1.55860000      -1.36120000      -0.89840000
H       -1.61280000      -1.24630000       2.14480000
H       -0.94660000      -2.59860000       1.22130000
H        0.69200000      -0.24690000       2.20670000
H        2.94570000      -2.42230000       1.43370000
H        2.01060000      -2.61040000      -1.20980000
H        0.25030000      -2.71830000      -0.75240000
H        1.83040000      -0.11740000      -1.44160000
