17
Properties=species:S:1:pos:R:3 gdb_33181=T pbc="F F F"
O       -0.52600000       1.56350000       0.20670000
C       -0.02620000       0.24440000       0.28610000
C       -1.07230000      -0.76590000      -0.18440000
N       -1.50630000      -0.36590000      -1.51660000
C       -2.23380000      -1.15150000      -2.18760000
N       -2.73890000      -0.94420000      -3.45460000
C       -3.47390000      -2.05670000      -3.85410000
C       -3.43290000      -2.92730000      -2.84090000
O       -2.68330000      -2.39920000      -1.80190000
H       -0.96170000       1.60220000      -0.65590000
H        0.88610000       0.12570000      -0.32250000
H        0.24170000       0.05610000       1.33160000
H       -0.65200000      -1.78240000      -0.16880000
H       -1.92100000      -0.75480000       0.51560000
H       -2.53420000      -0.12090000      -3.99020000
H       -3.95690000      -2.11790000      -4.81370000
H       -3.85340000      -3.90450000      -2.68720000
