19
Properties=species:S:1:pos:R:3 gdb_65226=T pbc="F F F"
C        0.08200000       1.50630000       0.51040000
C        0.03340000       0.07280000       0.01500000
C        1.09450000      -0.37890000      -0.96370000
C        1.12020000      -0.87490000       0.46340000
C       -1.37400000      -0.47050000      -0.12590000
C       -2.23750000      -0.02250000      -1.32650000
O       -2.35620000      -1.41450000      -1.77090000
C       -1.56510000      -1.86110000      -0.74590000
O       -1.21340000      -2.97790000      -0.53280000
H        1.11520000       1.85500000       0.59790000
H       -0.43970000       2.18720000      -0.17310000
H       -0.38720000       1.60100000       1.49690000
H        0.82890000      -1.09120000      -1.73760000
H        1.83600000       0.35080000      -1.27060000
H        1.88180000      -0.48430000       1.12990000
H        0.85290000      -1.91160000       0.63260000
H       -1.90710000      -0.39540000       0.82850000
H       -3.22100000       0.39540000      -1.10470000
H       -1.72000000       0.57490000      -2.08000000
