18
Properties=species:S:1:pos:R:3 gdb_45749=T pbc="F F F"
O       -0.02860000       0.07220000       0.17350000
C       -0.03100000       1.27070000       0.08570000
C       -1.26900000       2.18060000       0.11120000
C       -0.68520000       3.55320000      -0.08150000
C        0.64630000       3.53970000      -0.18480000
C        1.23070000       2.15480000      -0.06410000
C        2.18290000       1.91660000       1.10530000
C        3.17620000       2.93130000       1.52710000
N        2.01250000       2.62490000       2.38160000
H       -1.97100000       1.88640000      -0.67920000
H       -1.80860000       2.05620000       1.05900000
H       -1.30030000       4.44340000      -0.14920000
H        1.25640000       4.41940000      -0.35600000
H        1.75200000       1.84560000      -0.98200000
H        2.43200000       0.86440000       1.22320000
H        4.13590000       2.61790000       1.92820000
H        3.19910000       3.88260000       1.00170000
H        1.31330000       3.35750000       2.26900000
