18
Properties=species:S:1:pos:R:3 gdb_5224=T pbc="F F F"
C        0.09910000       1.56450000      -0.03360000
C        0.23060000       0.04050000      -0.06750000
C        0.51710000      -0.56250000       1.32260000
C        0.61630000      -2.05410000       1.31220000
N       -0.37490000      -2.89780000       1.51260000
C        0.16350000      -4.15520000       1.36040000
C        1.49670000      -4.07690000       1.06370000
N        1.77530000      -2.72670000       1.03390000
H        1.01650000       2.03570000       0.33750000
H       -0.10220000       1.96800000      -1.03060000
H       -0.72020000       1.87570000       0.62370000
H       -0.68910000      -0.40980000      -0.45720000
H        1.03130000      -0.24870000      -0.76030000
H        1.44030000      -0.12610000       1.72670000
H       -0.29060000      -0.29110000       2.00920000
H       -0.43910000      -5.04300000       1.47830000
H        2.25450000      -4.82120000       0.88440000
H        2.67350000      -2.31180000       0.85140000
