20
Properties=species:S:1:pos:R:3 gdb_119532=T pbc="F F F"
O        0.09290000       1.44390000       0.21630000
C        0.02630000       0.02670000       0.24040000
C       -1.30910000      -0.51220000      -0.28470000
C       -1.37650000      -2.02120000      -0.26010000
C       -0.49270000      -2.83620000      -1.21630000
C       -1.28810000      -4.10130000      -1.46110000
C       -2.48090000      -4.06000000      -0.86040000
C       -2.63790000      -2.80730000      -0.06480000
N       -1.67660000      -2.61920000       1.05140000
H       -0.57550000       1.77660000       0.82380000
H        0.85070000      -0.31470000      -0.39550000
H        0.20560000      -0.37110000       1.25070000
H       -2.11950000      -0.11560000       0.33910000
H       -1.46880000      -0.14170000      -1.30460000
H       -0.31940000      -2.28660000      -2.15170000
H        0.50060000      -3.04120000      -0.79530000
H       -0.89920000      -4.93260000      -2.03810000
H       -3.23870000      -4.83380000      -0.89790000
H       -3.61250000      -2.35380000       0.08670000
H       -1.15280000      -3.48240000       1.18680000
