20
Properties=species:S:1:pos:R:3 gdb_53955=T pbc="F F F"
C       -0.28540000       1.48070000       0.12770000
C        0.04440000      -0.02220000      -0.03480000
C        0.83700000      -0.51230000       1.18520000
C       -1.28730000      -0.76540000      -0.18530000
C       -1.57470000      -2.09540000       0.36370000
O       -2.08140000      -0.91200000       0.99240000
C        0.77180000      -0.18030000      -1.38790000
N        2.07960000      -0.55950000      -1.35410000
O        0.19380000       0.03640000      -2.43850000
H        0.62880000       2.07210000       0.24180000
H       -0.82330000       1.84790000      -0.74910000
H       -0.90740000       1.62930000       1.01490000
H        0.18790000      -0.50300000       2.06470000
H        1.21410000      -1.53180000       1.05820000
H        1.68530000       0.14760000       1.39500000
H       -1.84290000      -0.45610000      -1.06820000
H       -2.32220000      -2.72160000      -0.12110000
H       -0.82220000      -2.63590000       0.93350000
H        2.59190000      -0.68750000      -0.50120000
H        2.57210000      -0.60870000      -2.23120000
