21
Properties=species:S:1:pos:R:3 gdb_107415=T pbc="F F F"
C        0.09640000       1.29080000       0.38750000
O       -0.01350000      -0.00410000      -0.17530000
C       -1.30390000      -0.51750000      -0.14260000
C       -1.85540000      -1.07670000       1.15550000
C       -1.51330000      -1.99000000      -0.00540000
O       -2.58160000      -2.39070000      -0.81740000
C       -2.77940000      -1.38740000      -1.83310000
C       -4.22430000      -1.43820000      -2.29340000
C       -2.32160000      -0.05610000      -1.19230000
H        1.15160000       1.56950000       0.34130000
H       -0.49080000       2.03220000      -0.17330000
H       -0.23580000       1.30550000       1.43510000
H       -1.17590000      -1.09720000       2.00160000
H       -2.90360000      -0.93030000       1.39450000
H       -0.68750000      -2.69000000       0.07300000
H       -2.11270000      -1.61780000      -2.67940000
H       -4.89910000      -1.20950000      -1.46240000
H       -4.39610000      -0.71110000      -3.09340000
H       -4.47250000      -2.43300000      -2.67370000
H       -3.16880000       0.48080000      -0.75100000
H       -1.84260000       0.60040000      -1.92330000
