18
Properties=species:S:1:pos:R:3 gdb_67382=T pbc="F F F"
C        0.00580000       1.55170000      -0.03190000
C        0.00370000       0.05500000       0.01580000
C        0.44160000      -1.01360000      -0.96010000
C        1.26850000      -1.72580000       0.10490000
C        0.50260000      -0.87290000       1.17500000
N       -0.70330000      -1.54740000       1.63260000
C       -1.56710000      -1.75190000       0.56230000
O       -2.54010000      -2.47130000       0.55660000
C       -1.04040000      -0.87410000      -0.53980000
H        1.00990000       1.95820000       0.13370000
H       -0.34070000       1.90740000      -1.00750000
H       -0.65770000       1.97330000       0.73160000
H        0.69040000      -0.91170000      -2.00980000
H        1.19340000      -2.81430000       0.20110000
H        2.32040000      -1.43410000       0.03800000
H        1.07570000      -0.43800000       1.99250000
H       -0.65530000      -2.27210000       2.33510000
H       -1.72530000      -0.54340000      -1.31000000
