21
Properties=species:S:1:pos:R:3 gdb_101586=T pbc="F F F"
C        0.52630000       1.58120000       0.09920000
C        0.03700000       0.15150000      -0.14560000
C        0.75880000      -0.53790000      -1.30790000
O        2.16900000      -0.58810000      -1.10530000
C        0.19540000      -1.94990000      -1.58630000
C        0.82070000      -2.53770000      -2.83580000
O        0.49130000      -2.18260000      -3.94890000
C        1.92430000      -3.56640000      -2.67650000
O        2.40740000      -4.00150000      -3.91010000
H        1.60420000       1.59910000       0.28000000
H        0.32680000       2.21700000      -0.76990000
H        0.02400000       2.02620000       0.96290000
H        0.17410000      -0.45570000       0.76200000
H       -1.04030000       0.15110000      -0.35030000
H        0.63180000       0.05790000      -2.21940000
H        2.32930000      -0.97020000      -0.23440000
H        0.37620000      -2.59370000      -0.71650000
H       -0.88500000      -1.88270000      -1.74840000
H        2.71160000      -3.09010000      -2.06700000
H        1.53230000      -4.40840000      -2.08080000
H        1.91760000      -3.47960000      -4.56650000
