19
Properties=species:S:1:pos:R:3 gdb_75287=T pbc="F F F"
C        0.00750000       1.54310000       0.00820000
C       -0.00380000       0.04300000      -0.05660000
C       -0.01390000      -0.65960000      -1.19120000
C       -0.02460000      -2.16350000      -1.15080000
C       -0.02220000      -2.68360000       0.28200000
C       -0.90380000      -1.98610000       1.35850000
O       -0.01170000      -2.51370000       2.40810000
C        0.87880000      -1.99910000       1.35080000
C       -0.00370000      -0.72060000       1.24210000
H        0.89190000       1.91010000       0.54500000
H        0.00510000       1.98960000      -0.98990000
H       -0.86510000       1.92290000       0.55510000
H       -0.01460000      -0.16760000      -2.16030000
H       -0.90280000      -2.55530000      -1.68450000
H        0.84320000      -2.56790000      -1.69200000
H       -0.02980000      -3.77270000       0.36060000
H       -1.98010000      -2.04820000       1.52560000
H        1.95550000      -2.07700000       1.50850000
H        0.00470000      -0.10340000       2.14220000
