20
Properties=species:S:1:pos:R:3 gdb_75608=T pbc="F F F"
C        0.25330000       1.61630000      -0.29440000
C       -0.01410000       0.15660000      -0.02180000
N        0.15020000      -0.69710000      -0.93870000
C       -0.01650000      -2.13590000      -0.86730000
C       -1.48170000      -2.61310000      -0.90130000
O       -2.08910000      -2.78700000       0.36270000
C       -2.26830000      -1.63130000       1.14420000
C       -0.99620000      -1.12620000       1.85160000
O       -0.40350000       0.04140000       1.28340000
H        1.00330000       1.99770000       0.40590000
H        0.60630000       1.73960000      -1.31670000
H       -0.65660000       2.20550000      -0.14070000
H        0.47010000      -2.54210000      -1.76160000
H        0.48680000      -2.60080000      -0.01000000
H       -2.06550000      -1.91690000      -1.52390000
H       -1.52410000      -3.60330000      -1.36470000
H       -2.70920000      -0.80620000       0.56220000
H       -2.99220000      -1.92000000       1.91320000
H       -1.25420000      -0.80170000       2.86340000
H       -0.27670000      -1.94560000       1.93940000
