15
Properties=species:S:1:pos:R:3 gdb_123625=T pbc="F F F"
C        0.05600000       1.47800000      -0.01670000
C        1.31890000       0.68300000       0.02890000
N       -0.02410000       0.01650000      -0.01560000
C       -0.21650000      -0.59740000      -1.36010000
C        1.04410000      -0.26770000      -2.11670000
N        1.51320000      -0.50810000      -3.30800000
O        2.79910000       0.05500000      -3.28680000
C        3.03290000       0.61090000      -2.07490000
C        1.94880000       0.44370000      -1.28410000
H       -0.31850000       1.95240000       0.88640000
H       -0.15760000       2.01550000      -0.93900000
H        1.88110000       0.58470000       0.95140000
H       -0.34100000      -1.67820000      -1.23830000
H       -1.12370000      -0.20840000      -1.83210000
H        4.00260000       1.06800000      -1.95750000
