19
Properties=species:S:1:pos:R:3 gdb_71320=T pbc="F F F"
C       -0.06350000       1.51830000      -0.07230000
C        0.01220000       0.01200000       0.02220000
C       -1.30170000      -0.76770000       0.30650000
C       -0.54000000      -1.75850000       1.23580000
C        0.70860000      -0.79510000       1.18440000
C        1.37610000      -1.73310000       0.10540000
C        0.91160000      -0.73830000      -0.99920000
C        0.29250000      -2.76520000       0.43480000
O        0.21200000      -3.95000000       0.27180000
H        0.93530000       1.96720000      -0.11200000
H       -0.60140000       1.82690000      -0.97750000
H       -0.59010000       1.94700000       0.78760000
H       -1.98850000      -0.15700000       0.90020000
H       -1.85110000      -1.18450000      -0.54360000
H       -1.04340000      -2.11920000       2.13260000
H        1.21560000      -0.38430000       2.05310000
H        2.41140000      -2.07340000       0.09440000
H        0.44140000      -1.15410000      -1.89610000
H        1.75120000      -0.10740000      -1.30600000
