13
Properties=species:S:1:pos:R:3 gdb_133296=T pbc="F F F"
C        0.08240000       1.41920000       0.10120000
N        0.13500000      -0.03480000       0.10010000
C        0.44670000      -0.62590000      -0.97170000
O        0.74100000       0.03110000      -2.14550000
N        1.10320000      -0.68310000      -3.38770000
N        1.13920000      -1.90610000      -3.35830000
C        0.86060000      -2.67130000      -2.22780000
C        0.52610000      -2.07740000      -1.07190000
F        0.25840000      -2.77010000       0.00810000
H        1.05240000       1.85940000      -0.16330000
H       -0.64910000       1.79820000      -0.62400000
H       -0.19980000       1.76270000       1.09800000
H        0.93210000      -3.74260000      -2.34940000
