18
Properties=species:S:1:pos:R:3 gdb_108273=T pbc="F F F"
O        0.18720000       1.32850000       0.13660000
C        0.06250000      -0.07980000       0.13780000
C       -1.38830000      -0.58560000       0.12680000
C       -2.35230000       0.34230000       0.93420000
O       -2.85880000       0.92530000      -0.34380000
C       -2.25850000      -0.11790000      -0.99220000
N       -2.53850000      -0.84080000      -1.98700000
C       -1.76570000      -2.09160000      -1.70150000
C       -1.49330000      -2.09830000      -0.14610000
H       -0.20760000       1.67190000      -0.67230000
H        0.60680000      -0.53600000      -0.70290000
H        0.54880000      -0.41750000       1.06000000
H       -3.17360000      -0.15670000       1.45330000
H       -1.87950000       1.11490000       1.53870000
H       -2.36950000      -2.94830000      -2.01090000
H       -0.83510000      -2.12500000      -2.28200000
H       -0.60050000      -2.66620000       0.13190000
H       -2.35110000      -2.53820000       0.37180000
