16
Properties=species:S:1:pos:R:3 gdb_15524=T pbc="F F F"
C        0.05270000       1.50320000       0.01880000
C       -0.02200000       0.01420000      -0.04490000
C       -1.08180000      -0.80910000       0.02970000
C       -0.62780000      -2.24120000      -0.08820000
O        0.79080000      -2.17280000      -0.23800000
C        1.21830000      -0.82250000      -0.21900000
C       -2.48770000      -0.45640000       0.19760000
O       -3.37920000      -1.27820000       0.25330000
H        0.69550000       1.81960000       0.84940000
H        0.50730000       1.90370000      -0.89570000
H       -0.92450000       1.97140000       0.14670000
H       -0.88640000      -2.83170000       0.80180000
H       -1.07590000      -2.74720000      -0.95460000
H        1.74590000      -0.57070000      -1.15460000
H        1.93540000      -0.65540000       0.60270000
H       -2.71070000       0.62920000       0.27440000
