22
Properties=species:S:1:pos:R:3 gdb_109605=T pbc="F F F"
C       -0.51230000       0.53670000      -2.65330000
C       -0.23270000      -0.45880000      -1.51960000
C       -1.50230000      -0.86110000      -0.79510000
C       -2.37230000      -2.02530000      -1.19660000
C       -2.07620000      -2.94260000      -2.36340000
C       -1.57510000      -2.09500000       0.11310000
C       -0.39270000      -3.03820000       0.29120000
C       -2.35110000      -1.93060000       1.31870000
N       -2.96990000      -1.80130000       2.28860000
H        0.41550000       0.83630000      -3.14970000
H       -1.17410000       0.10130000      -3.40890000
H       -0.99540000       1.44280000      -2.27250000
H        0.28280000      -1.33350000      -1.92670000
H        0.45990000      -0.00630000      -0.79880000
H       -2.05060000      -0.00570000      -0.40770000
H       -3.43590000      -1.86340000      -1.04620000
H       -1.00810000      -3.08370000      -2.54040000
H       -2.51920000      -3.93090000      -2.20270000
H       -2.50860000      -2.53220000      -3.28220000
H        0.18100000      -3.15070000      -0.62900000
H        0.28380000      -2.66350000       1.06510000
H       -0.73600000      -4.03060000       0.59820000
