23
Properties=species:S:1:pos:R:3 gdb_53503=T pbc="F F F"
C       -0.02240000       1.53380000       0.04610000
C       -0.00440000       0.07800000       0.05190000
C        0.00880000      -1.12580000       0.05370000
C        0.01120000      -2.58370000       0.06100000
C       -1.39570000      -3.20110000      -0.10600000
O       -2.00620000      -2.79210000      -1.32280000
C       -1.40240000      -4.73960000       0.05800000
C       -2.84790000      -5.24900000       0.13550000
C       -0.63210000      -5.46300000      -1.05700000
H        0.74270000       1.94030000      -0.62490000
H       -0.99260000       1.91690000      -0.28950000
H        0.16570000       1.94090000       1.04590000
H        0.66770000      -2.95530000      -0.73880000
H        0.44640000      -2.95360000       0.99900000
H       -2.03640000      -2.77780000       0.67660000
H       -1.37830000      -2.93690000      -2.03820000
H       -0.90730000      -4.95800000       1.01490000
H       -3.39210000      -4.98280000      -0.77540000
H       -2.87840000      -6.33710000       0.25080000
H       -3.37990000      -4.80560000       0.98400000
H       -0.66220000      -6.54590000      -0.90270000
H       -1.08310000      -5.26390000      -2.03590000
H        0.42160000      -5.16990000      -1.10000000
