22
Properties=species:S:1:pos:R:3 gdb_119964=T pbc="F F F"
C        0.15720000       1.44570000       0.40160000
C        0.29760000      -0.02960000       0.08630000
C        0.43690000      -0.57250000      -1.30080000
C        0.48340000       0.29620000      -2.53920000
O        1.03620000      -0.39640000      -3.64970000
N        1.55270000      -0.65690000      -0.34900000
C        2.77420000       0.12920000      -0.52150000
C        3.68020000      -0.15450000       0.67990000
O        3.90620000      -1.53800000       0.82830000
H        0.61340000       2.10130000      -0.34170000
H       -0.90530000       1.70430000       0.45870000
H        0.60350000       1.67680000       1.37500000
H       -0.24810000      -0.65620000       0.79150000
H       -0.01510000      -1.54200000      -1.51150000
H       -0.53860000       0.55560000      -2.83680000
H        1.01630000       1.23810000      -2.35390000
H        1.92960000      -0.66700000      -3.41460000
H        3.27910000      -0.22520000      -1.42930000
H        2.61970000       1.21200000      -0.62570000
H        4.65270000       0.32990000       0.53900000
H        3.22270000       0.28010000       1.58590000
H        3.04050000      -1.94240000       0.67300000
