21
Properties=species:S:1:pos:R:3 gdb_31129=T pbc="F F F"
C        0.07010000       1.56250000       0.19540000
C       -0.03230000       0.03840000       0.00510000
C        0.66590000      -0.46260000      -1.22660000
C        0.10900000      -0.76190000      -2.43610000
C       -1.28190000      -0.73560000      -2.96230000
O        1.07420000      -1.17080000      -3.31150000
C        2.26020000      -1.13010000      -2.64450000
C        2.08610000      -0.70630000      -1.36730000
C        3.14160000      -0.54580000      -0.31760000
H        1.11370000       1.88540000       0.26300000
H       -0.38360000       2.09120000      -0.64860000
H       -0.43990000       1.87900000       1.11130000
H        0.38570000      -0.46050000       0.88870000
H       -1.08970000      -0.24780000      -0.02720000
H       -1.39540000      -0.00380000      -3.77100000
H       -1.57480000      -1.71220000      -3.36440000
H       -1.98330000      -0.47010000      -2.16830000
H        3.12760000      -1.43540000      -3.20740000
H        3.23850000       0.49540000       0.01180000
H        2.91720000      -1.14200000       0.57490000
H        4.11860000      -0.86570000      -0.69090000
