13
Properties=species:S:1:pos:R:3 gdb_21304=T pbc="F F F"
C       -0.01540000       1.37910000       0.00330000
O       -0.02370000      -0.05320000      -0.02090000
C        0.58470000      -0.61200000      -1.06780000
N        1.17700000       0.00730000      -2.04580000
O        1.65490000      -0.98820000      -2.86510000
N        1.35200000      -2.24400000      -2.36220000
C        0.68770000      -2.03030000      -1.26070000
N        0.12600000      -3.00030000      -0.46320000
H        1.01180000       1.75580000       0.02280000
H       -0.52410000       1.77860000      -0.87910000
H       -0.54500000       1.66610000       0.91140000
H        0.51870000      -3.92230000      -0.58780000
H        0.03350000      -2.73570000       0.50660000
