21
Properties=species:S:1:pos:R:3 gdb_96344=T pbc="F F F"
C       -0.02710000       1.56180000       0.00090000
C        0.00600000       0.03520000      -0.00620000
O       -1.32390000      -0.49590000       0.07130000
C        0.72940000      -0.51700000      -1.25310000
C        0.90780000      -2.03510000      -1.16480000
O        1.56100000      -2.41310000       0.04410000
C        0.78880000      -2.04120000       1.18270000
C        0.71280000      -0.51670000       1.25880000
O        2.01930000       0.02490000       1.38850000
H        0.98220000       1.96890000       0.08880000
H       -0.47730000       1.94550000      -0.92330000
H       -0.62160000       1.91910000       0.84750000
H       -1.84950000      -0.07810000      -0.61880000
H        0.16260000      -0.25750000      -2.15650000
H        1.71020000      -0.03630000      -1.34240000
H       -0.07240000      -2.53060000      -1.22480000
H        1.53400000      -2.40780000      -1.98020000
H       -0.21680000      -2.47790000       1.13420000
H        1.31620000      -2.43630000       2.05550000
H        0.13970000      -0.20860000       2.14020000
H        2.59850000      -0.55640000       0.87890000
