22
Properties=species:S:1:pos:R:3 gdb_88980=T pbc="F F F"
C        0.09210000       1.49760000      -0.39770000
C        0.16850000       0.01870000      -0.08290000
C        1.47950000      -0.67120000       0.09060000
N        0.57220000      -0.51040000       1.22200000
C        0.96310000       0.40310000       2.29280000
C        1.67630000      -0.35500000       3.39010000
C        3.18420000      -0.52640000       3.35060000
C        2.56390000       0.37050000       4.37490000
O        2.81360000       1.74160000       4.21960000
H        0.95760000       2.05120000      -0.02630000
H        0.04800000       1.64350000      -1.48240000
H       -0.81010000       1.94910000       0.03070000
H       -0.64400000      -0.55840000      -0.52420000
H        1.63630000      -1.68770000      -0.26160000
H        2.36910000      -0.04170000       0.05920000
H        1.60230000       1.23270000       1.95660000
H        0.04140000       0.84830000       2.69210000
H        1.10710000      -1.19210000       3.78440000
H        3.62100000      -1.46630000       3.66820000
H        3.71560000      -0.02530000       2.54850000
H        2.55120000       0.02780000       5.40950000
H        2.05050000       2.22140000       4.55860000
