15
Properties=species:S:1:pos:R:3 gdb_27802=T pbc="F F F"
C       -0.01860000       1.47790000       0.01820000
C        0.00080000      -0.01960000      -0.02310000
N       -0.02070000      -0.60930000      -1.18360000
C       -0.00280000      -1.97230000      -1.22890000
N       -0.02090000      -2.67170000      -2.27830000
O        0.03870000      -2.66600000       0.04250000
C        0.05670000      -1.93230000       1.15650000
N        0.09500000      -2.67790000       2.27240000
N        0.04040000      -0.63260000       1.20700000
H        0.86940000       1.84450000       0.54380000
H       -0.05140000       1.88720000      -0.99070000
H       -0.88630000       1.82060000       0.59160000
H       -0.00180000      -3.66420000      -2.05140000
H        0.10840000      -3.68040000       2.21620000
H        0.11210000      -2.21010000       3.16120000
