19
Properties=species:S:1:pos:R:3 gdb_78163=T pbc="F F F"
C       -0.04430000       1.49890000       0.24010000
C        0.02510000       0.01430000      -0.03110000
C        0.64990000      -0.65020000      -1.20390000
C        1.63530000       0.07370000      -2.10810000
C        1.09520000       1.15530000      -3.03150000
O        2.59940000       0.62030000      -1.18860000
C        2.44550000       0.05710000       0.05760000
N        3.21890000       0.24470000       1.03400000
N        1.29020000      -0.77160000       0.12220000
H        0.79680000       2.05170000      -0.17900000
H       -0.96940000       1.90730000      -0.18010000
H       -0.06050000       1.67630000       1.32000000
H       -0.80530000      -0.53590000       0.40710000
H        0.20060000      -1.55580000      -1.60130000
H        2.15190000      -0.68340000      -2.71490000
H        0.55920000       1.93050000      -2.48090000
H        1.91370000       1.62280000      -3.58540000
H        0.40760000       0.70790000      -3.75630000
H        3.98590000       0.85740000       0.75740000
