19
Properties=species:S:1:pos:R:3 gdb_38817=T pbc="F F F"
C        0.43980000       1.55310000       0.53530000
C        1.57780000       1.95960000      -0.37010000
C        2.04000000       0.94670000      -1.09940000
C        1.30750000      -0.34050000      -0.80520000
C        2.05690000      -1.31700000       0.09490000
O        2.34160000      -0.77690000       1.39230000
C        1.22440000      -1.66610000       1.25390000
C       -0.10910000      -0.95130000       1.16630000
C        0.08110000       0.11740000       0.06020000
H        0.76550000       1.56120000       1.58270000
H       -0.41620000       2.23550000       0.46750000
H        1.97820000       2.96780000      -0.38110000
H        2.87290000       0.99920000      -1.79200000
H        1.00510000      -0.87360000      -1.71590000
H        2.81750000      -1.98170000      -0.30910000
H        1.31610000      -2.61190000       1.78400000
H       -0.88260000      -1.67760000       0.88830000
H       -0.40790000      -0.51430000       2.12500000
H       -0.81180000       0.17250000      -0.56720000
