19
Properties=species:S:1:pos:R:3 gdb_97901=T pbc="F F F"
C       -0.59900000       1.20550000      -0.23310000
C        0.49680000       0.21250000       0.19540000
C        1.18430000      -0.40390000      -0.93450000
C        1.73590000      -0.89580000      -1.88540000
C        2.40270000      -1.51730000      -3.02110000
C        1.64690000      -2.76540000      -3.55520000
O        0.32270000      -2.45940000      -3.96080000
C        2.41500000      -3.40030000      -4.63140000
C        3.04320000      -3.87420000      -5.54040000
H       -0.17450000       2.01990000      -0.82650000
H       -1.35790000       0.70580000      -0.84120000
H       -1.08820000       1.63730000       0.64530000
H        1.22880000       0.72640000       0.83190000
H        0.05390000      -0.57230000       0.82210000
H        2.50840000      -0.80250000      -3.84820000
H        3.42110000      -1.82280000      -2.75070000
H        1.53020000      -3.47120000      -2.72550000
H        0.37740000      -1.94420000      -4.77360000
H        3.59190000      -4.31630000      -6.33530000
