18
Properties=species:S:1:pos:R:3 gdb_87043=T pbc="F F F"
C       -0.28040000       1.46640000       0.51360000
C       -0.09870000      -0.03310000       0.49290000
C        1.00180000      -0.67910000      -0.29330000
C        1.05260000      -0.70930000       1.23320000
C        2.03730000       0.11360000       1.88510000
N        2.83010000       0.76100000       2.42530000
C        0.81440000      -2.02780000       1.93020000
C       -0.29450000      -2.22510000       2.87040000
O       -0.34780000      -2.74480000       1.53420000
H        0.67980000       1.98960000       0.49560000
H       -0.85810000       1.78920000      -0.35870000
H       -0.81810000       1.78890000       1.41100000
H       -1.01250000      -0.61760000       0.54530000
H        0.80280000      -1.62750000      -0.77930000
H        1.71880000      -0.04030000      -0.79680000
H        1.70690000      -2.64330000       2.04740000
H       -0.21170000      -2.97360000       3.65550000
H       -0.97310000      -1.39900000       3.07300000
