23
Properties=species:S:1:pos:R:3 gdb_120938=T pbc="F F F"
C       -0.09160000       1.38530000       0.01680000
O       -0.11890000      -0.01710000      -0.07590000
C        0.74510000      -0.52080000      -1.07490000
C        0.61210000      -2.03190000      -1.10130000
C       -0.71450000      -2.67470000      -1.62630000
C        0.10360000      -3.49010000      -2.63420000
C        0.86270000      -2.56010000      -3.53910000
C        1.40380000      -2.82850000      -2.15710000
C        2.76470000      -3.42100000      -1.91980000
H        0.91250000       1.76030000       0.27370000
H       -0.40170000       1.86530000      -0.92570000
H       -0.78870000       1.67740000       0.80630000
H        0.48610000      -0.08390000      -2.05410000
H        1.78980000      -0.23160000      -0.86080000
H        0.83640000      -2.40930000      -0.09830000
H       -1.21600000      -3.27700000      -0.86670000
H       -1.44590000      -1.98310000      -2.05850000
H       -0.06900000      -4.52740000      -2.89720000
H        1.41930000      -3.03910000      -4.33920000
H        0.43980000      -1.59710000      -3.81700000
H        3.54360000      -2.64850000      -1.90120000
H        2.80630000      -3.95420000      -0.96270000
H        3.02910000      -4.13180000      -2.70990000
