19
Properties=species:S:1:pos:R:3 gdb_33252=T pbc="F F F"
O       -0.03140000       1.41190000      -0.19940000
C       -0.02140000       0.01200000       0.06230000
C       -1.46280000      -0.46720000       0.03500000
N       -2.03820000      -0.23090000      -1.27470000
C       -3.39200000      -0.54240000      -1.45160000
C       -4.19110000      -1.32230000      -0.63740000
N       -5.43380000      -1.40950000      -1.23730000
C       -5.43930000      -0.69330000      -2.39950000
C       -4.18930000      -0.14410000      -2.56760000
H        0.87240000       1.69780000      -0.35820000
H        0.55400000      -0.52750000      -0.70400000
H        0.42060000      -0.20690000       1.04610000
H       -1.47850000      -1.54380000       0.24840000
H       -2.02700000       0.03190000       0.84350000
H       -1.80960000       0.70280000      -1.59140000
H       -3.98790000      -1.81770000       0.29630000
H       -6.21640000      -1.91370000      -0.86300000
H       -6.32280000      -0.63240000      -3.01440000
H       -3.86720000       0.46960000      -3.39520000
