18
Properties=species:S:1:pos:R:3 gdb_79607=T pbc="F F F"
C       -0.26110000       1.53020000       0.27940000
C       -0.00650000       0.07210000      -0.04600000
C        0.55530000      -0.56000000      -1.29520000
C        1.42630000       0.20310000      -2.28750000
N        1.70480000       1.60950000      -1.95100000
C        2.71320000       0.56110000      -1.63920000
C        2.66170000       0.03280000      -0.21140000
O        3.60100000       0.00950000       0.54500000
C        1.33330000      -0.65530000       0.01490000
H       -1.15940000       1.88100000      -0.24120000
H       -0.44180000       1.63110000       1.35530000
H        0.56310000       2.17650000      -0.00910000
H       -0.78040000      -0.56550000       0.38020000
H        0.04390000      -1.42850000      -1.69560000
H        1.37600000      -0.08370000      -3.33200000
H        2.01600000       2.10160000      -2.78600000
H        3.67660000       0.58780000      -2.13520000
H        1.39230000      -1.55480000       0.61740000
