17
Properties=species:S:1:pos:R:3 gdb_37453=T pbc="F F F"
C       -0.01130000       1.54970000       0.01150000
O        1.32900000       2.06910000       0.02590000
C        2.29040000       1.05600000      -0.04710000
O        2.20760000       0.17420000       1.06610000
C        0.91220000      -0.43840000       1.15860000
C        0.03370000       0.01710000      -0.02680000
C        0.77750000      -0.42020000      -1.28660000
O        1.10230000       0.60300000      -2.23360000
C        2.10690000       0.19310000      -1.30620000
H       -0.51760000       1.88620000       0.92510000
H       -0.53640000       1.95580000      -0.85760000
H        3.26770000       1.53560000       0.01830000
H        1.03780000      -1.52880000       1.16760000
H        0.45290000      -0.14040000       2.10980000
H       -0.97250000      -0.40280000       0.04960000
H        0.58690000      -1.40500000      -1.70580000
H        2.97990000      -0.29770000      -1.72810000
