15
Properties=species:S:1:pos:R:3 gdb_42495=T pbc="F F F"
O        0.38510000       0.08930000       0.42450000
C        0.17640000       1.21550000       0.02740000
C        1.24450000       2.02040000      -0.72680000
N        2.53910000       1.38170000      -0.82120000
C        3.27090000       1.34680000       0.44640000
C        4.60360000       0.76680000       0.25680000
N        5.64790000       0.29350000       0.11920000
C       -1.09720000       1.88450000       0.20390000
C       -2.13400000       2.48440000       0.32560000
H        0.85210000       2.21110000      -1.73520000
H        1.34240000       3.00740000      -0.25750000
H        2.42160000       0.43070000      -1.15740000
H        3.39610000       2.37640000       0.80400000
H        2.76380000       0.78340000       1.24440000
H       -3.05960000       2.99440000       0.44510000
