14
Properties=species:S:1:pos:R:3 gdb_3653=T pbc="F F F"
C        0.07680000       1.50470000       0.01430000
C       -0.06140000       0.02520000      -0.05760000
C       -1.12610000      -0.82660000       0.00520000
C       -2.58100000      -0.52160000       0.17700000
C       -0.51140000      -2.10550000      -0.13460000
N        0.78760000      -2.03450000      -0.26790000
O        1.08040000      -0.67480000      -0.21940000
H        0.71610000       1.79900000       0.85330000
H        0.53080000       1.90160000      -0.89980000
H       -0.90020000       1.97390000       0.14500000
H       -3.17220000      -0.88780000      -0.66960000
H       -2.98680000      -0.98930000       1.08090000
H       -2.75610000       0.55450000       0.25790000
H       -0.98580000      -3.07800000      -0.14130000
