21
Properties=species:S:1:pos:R:3 gdb_10179=T pbc="F F F"
C       -0.00790000       1.60690000       0.01580000
C        0.01670000       0.07640000      -0.01510000
C       -1.38730000      -0.53560000       0.01120000
C       -1.40790000      -2.08090000      -0.00020000
C       -2.83870000      -2.64820000       0.15150000
C       -2.89590000      -4.17370000       0.24950000
C       -0.77610000      -2.59820000      -1.22020000
N       -0.29270000      -2.99970000      -2.19100000
H        1.00530000       2.01900000      -0.00020000
H       -0.54520000       2.01130000      -0.84900000
H       -0.50530000       1.97940000       0.91830000
H        0.54550000      -0.26610000      -0.91230000
H        0.59080000      -0.29990000       0.84210000
H       -1.91600000      -0.20880000       0.91530000
H       -1.97030000      -0.16730000      -0.84210000
H       -0.80400000      -2.44090000       0.84470000
H       -3.27100000      -2.19830000       1.05270000
H       -3.44470000      -2.30190000      -0.69370000
H       -3.92850000      -4.51510000       0.36610000
H       -2.48480000      -4.64530000      -0.64820000
H       -2.32510000      -4.53760000       1.11090000
