23
Properties=species:S:1:pos:R:3 gdb_100143=T pbc="F F F"
C       -0.19530000       1.57630000       0.05810000
C       -0.00280000       0.04900000       0.06830000
C        0.76140000      -0.38090000       1.33400000
C       -1.38650000      -0.62830000       0.06540000
O       -2.11120000      -0.21980000       1.21600000
C        0.72210000      -0.43270000      -1.21220000
C        2.15880000       0.08590000      -1.40760000
C        2.70510000      -0.32790000      -2.75440000
O        3.71070000      -0.96580000      -2.93020000
H        0.75850000       2.10630000       0.13980000
H       -0.68760000       1.90670000      -0.86420000
H       -0.82170000       1.88140000       0.89920000
H        0.16960000      -0.15890000       2.22470000
H        0.96490000      -1.45800000       1.32430000
H        1.71880000       0.14070000       1.42420000
H       -1.92450000      -0.35010000      -0.85560000
H       -1.25320000      -1.72210000       0.05410000
H       -2.96440000      -0.66200000       1.20880000
H        0.74900000      -1.53050000      -1.21150000
H        0.12160000      -0.14050000      -2.08520000
H        2.16290000       1.18430000      -1.38140000
H        2.83830000      -0.27890000      -0.63390000
H        2.08280000       0.00610000      -3.61950000
