17
Properties=species:S:1:pos:R:3 gdb_51984=T pbc="F F F"
N        0.98040000       0.06270000       0.60450000
C       -0.09400000       0.49880000       0.08880000
N       -1.29620000      -0.14690000       0.34560000
C       -2.51050000       0.25020000      -0.17770000
O       -2.62500000       1.22030000      -0.89710000
C       -3.68350000      -0.65220000       0.19710000
C       -5.02090000       0.09320000       0.11920000
C       -6.19420000      -0.85420000       0.03880000
O       -7.16510000      -0.81760000       0.74780000
H        1.76940000       0.64180000       0.32330000
H       -0.22250000       1.36090000      -0.56790000
H       -1.24190000      -0.95560000       0.94900000
H       -3.67860000      -1.49060000      -0.51490000
H       -3.53070000      -1.09050000       1.18920000
H       -5.16150000       0.76750000       0.96750000
H       -5.00690000       0.70080000      -0.79560000
H       -6.10040000      -1.62350000      -0.76590000
