21
Properties=species:S:1:pos:R:3 gdb_92598=T pbc="F F F"
C       -0.63570000       1.35150000       0.07270000
C        0.05420000       0.00340000      -0.07290000
C        1.40720000      -0.06190000      -0.84770000
C        2.05090000      -0.83200000       0.34150000
O        3.09230000      -0.18410000       1.04510000
C        2.46530000       0.82760000       1.79820000
O        1.18000000       0.36250000       2.15490000
C        0.76270000      -0.60430000       1.18850000
C        0.08550000      -1.75080000       1.90880000
H        0.03400000       2.09690000       0.51130000
H       -0.96820000       1.72380000      -0.90230000
H       -1.51460000       1.28030000       0.72220000
H       -0.65380000      -0.72880000      -0.47560000
H        1.39120000      -0.59820000      -1.79900000
H        1.87260000       0.91420000      -1.01150000
H        2.36200000      -1.85830000       0.14130000
H        3.04990000       1.00910000       2.70550000
H        2.38850000       1.76070000       1.21250000
H       -0.81160000      -1.40070000       2.43010000
H       -0.21410000      -2.53140000       1.20280000
H        0.76070000      -2.18800000       2.65040000
