18
Properties=species:S:1:pos:R:3 gdb_12000=T pbc="F F F"
C       -0.14860000       1.58600000       0.00810000
C        0.02290000       0.06280000      -0.00700000
O       -1.27230000      -0.56070000       0.03310000
C        0.84320000      -0.44670000      -1.18420000
C        1.80950000      -1.28540000      -0.80340000
C        1.87230000      -1.41770000       0.67970000
C        2.21910000      -0.13180000       1.41140000
C        0.77840000      -0.50610000       1.19690000
H        0.81450000       2.10210000       0.04680000
H       -0.67010000       1.92230000      -0.89650000
H       -0.74520000       1.88570000       0.87430000
H       -1.74220000      -0.31130000      -0.76990000
H        0.64270000      -0.12930000      -2.20280000
H        2.50650000      -1.78480000      -1.46780000
H        2.11120000      -2.36950000       1.14020000
H        2.59920000      -0.21580000       2.42480000
H        2.65690000       0.67350000       0.83070000
H        0.17320000      -0.77920000       2.05250000
