17
Properties=species:S:1:pos:R:3 gdb_47213=T pbc="F F F"
O       -0.13620000       0.53980000      -1.33610000
C       -0.02710000       1.31220000      -0.41960000
C       -1.19480000       1.67070000       0.49240000
C       -0.84100000       2.57860000       1.68200000
C        0.11110000       3.67030000       1.26310000
C        1.10430000       3.42330000       0.41290000
C        1.32600000       2.02470000      -0.13800000
C        2.08700000       1.19440000       0.79720000
C        2.67890000       0.50280000       1.58290000
H       -1.92210000       2.17850000      -0.15330000
H       -1.67110000       0.73820000       0.81050000
H       -1.75710000       2.99980000       2.10580000
H       -0.37890000       1.98260000       2.48060000
H       -0.02160000       4.66500000       1.67820000
H        1.80600000       4.19350000       0.11020000
H        1.85510000       2.05490000      -1.09600000
H        3.21890000      -0.10560000       2.26550000
