14
Properties=species:S:1:pos:R:3 gdb_5157=T pbc="F F F"
N       -0.04380000       0.91270000      -0.92840000
C       -0.02030000       0.01650000      -0.02910000
N       -1.16610000      -0.49270000       0.55320000
C       -2.44010000       0.01170000       0.31060000
C       -3.47240000      -0.43430000      -0.45210000
C       -4.53650000       0.50770000      -0.28170000
C       -4.06400000       1.45380000       0.57210000
O       -2.79330000       1.17000000       0.94910000
H        0.90130000       1.12270000      -1.24030000
H        0.87790000      -0.46780000       0.37500000
H       -1.03740000      -1.09130000       1.35380000
H       -3.46420000      -1.31990000      -1.06690000
H       -5.51370000       0.48360000      -0.73740000
H       -4.48650000       2.35240000       0.99060000
