20
Properties=species:S:1:pos:R:3 gdb_9853=T pbc="F F F"
C        0.18330000       1.28210000       0.34430000
O        0.03920000      -0.09830000       0.10350000
C        0.50080000      -0.53440000      -1.16800000
C        2.02820000      -0.53430000      -1.28300000
C       -0.09290000      -1.92310000      -1.38110000
C        0.23110000      -2.97630000      -0.34670000
C       -1.31170000      -2.03910000      -2.19220000
O       -0.02870000      -2.35030000      -2.74910000
H        1.23510000       1.59200000       0.42420000
H       -0.29390000       1.88320000      -0.44570000
H       -0.31240000       1.49510000       1.29480000
H        0.09220000       0.12270000      -1.95300000
H        2.32200000      -0.99110000      -2.23230000
H        2.42940000       0.48260000      -1.26130000
H        2.48280000      -1.09710000      -0.46270000
H       -0.07470000      -2.63270000       0.64480000
H       -0.28610000      -3.91030000      -0.57890000
H        1.30540000      -3.18400000      -0.31930000
H       -1.97450000      -2.89140000      -2.04820000
H       -1.78950000      -1.14420000      -2.58890000
