21
Properties=species:S:1:pos:R:3 gdb_95313=T pbc="F F F"
C       -0.26470000       1.55990000       0.04840000
C        0.04570000       0.06330000      -0.02730000
O        0.59880000      -0.30590000      -1.29550000
C        2.00460000      -0.16130000      -1.43800000
C        2.76290000      -0.74830000      -0.23780000
C        2.19770000      -2.13130000       0.13800000
O        1.07950000      -1.87360000       1.00110000
C        0.92940000      -0.45770000       1.12460000
C        2.36380000       0.06490000       1.00520000
H        0.63560000       2.17730000      -0.02180000
H       -0.92960000       1.83980000      -0.77300000
H       -0.76520000       1.80230000       0.99220000
H       -0.89740000      -0.49260000       0.01960000
H        2.25540000      -0.69250000      -2.36220000
H        2.29000000       0.89500000      -1.57450000
H        3.83750000      -0.76740000      -0.43690000
H        1.86130000      -2.69750000      -0.73760000
H        2.93480000      -2.73420000       0.68400000
H        0.44870000      -0.25540000       2.08620000
H        2.94710000      -0.21200000       1.88820000
H        2.44220000       1.14450000       0.85940000
