20
Properties=species:S:1:pos:R:3 gdb_56317=T pbc="F F F"
C        0.05790000       1.49990000      -0.04720000
C        0.02820000      -0.01380000       0.07170000
O       -0.00450000      -0.57260000       1.14290000
C        0.04210000      -0.79170000      -1.24160000
C        0.01070000      -2.30660000      -1.04780000
C        0.02550000      -3.05040000      -2.37360000
O       -0.00570000      -4.45070000      -2.09080000
C        0.00170000      -5.27300000      -3.15570000
N       -0.02420000      -6.52430000      -2.99120000
H        0.95510000       1.82400000      -0.58640000
H       -0.80380000       1.85550000      -0.62330000
H        0.04500000       1.94920000       0.94630000
H       -0.81120000      -0.44910000      -1.84480000
H        0.93200000      -0.48050000      -1.80780000
H        0.86700000      -2.62370000      -0.44550000
H       -0.88120000      -2.59220000      -0.48260000
H       -0.84510000      -2.77410000      -2.98610000
H        0.93060000      -2.80610000      -2.94840000
H        0.03130000      -4.74440000      -4.11970000
H       -0.01380000      -6.99240000      -3.89490000
