13
Properties=species:S:1:pos:R:3 gdb_43037=T pbc="F F F"
O       -0.08260000       0.05500000       0.00750000
C       -0.06870000       1.24350000       0.07580000
C       -1.11990000       2.36100000      -0.07570000
N       -0.92260000       3.11480000       1.21490000
C        0.36030000       3.55820000       0.62770000
C        0.02680000       3.20360000      -0.77290000
C        1.02240000       2.29200000       0.04400000
C        2.42580000       2.15630000      -0.12150000
N        3.56890000       2.03860000      -0.25780000
H       -2.12710000       2.16490000      -0.42880000
H       -1.54820000       3.92020000       1.20150000
H        0.97960000       4.34470000       1.03970000
H        0.20470000       3.61110000      -1.75810000
