16
Properties=species:S:1:pos:R:3 gdb_45260=T pbc="F F F"
O        0.13530000       0.20420000      -1.05660000
C        0.06440000       1.16350000      -0.35370000
C       -1.02730000       1.82590000       0.49750000
N       -0.12890000       3.00120000       0.66750000
C        0.22310000       3.42820000       2.02880000
C        1.49000000       2.67280000       2.39000000
O        1.35030000       1.25490000       2.24720000
C        1.98730000       1.98400000       1.18630000
C        1.03820000       2.29780000       0.04660000
H       -1.96960000       2.04500000      -0.01650000
H       -1.23090000       1.26260000       1.41750000
H        0.41560000       4.50890000       2.05970000
H       -0.59970000       3.21740000       2.72030000
H        2.14320000       3.00780000       3.19250000
H        3.03320000       1.75190000       1.00930000
H        1.54070000       2.82770000      -0.77060000
