20
Properties=species:S:1:pos:R:3 gdb_36198=T pbc="F F F"
N       -0.01300000      -1.18460000       0.11670000
C       -0.03190000      -0.02920000       0.13830000
C       -0.01810000       1.43480000       0.15930000
C        1.38080000       1.99970000      -0.06800000
C        2.41700000       1.82810000       1.07820000
C        2.70290000       3.36080000       1.05620000
C        1.67890000       3.54840000      -0.09380000
C        2.26730000       3.40180000      -1.52150000
C        1.98210000       1.86910000      -1.49570000
H       -0.70880000       1.79840000      -0.61130000
H       -0.41540000       1.77070000       1.12500000
H        1.97350000       1.48260000       2.01610000
H        3.26010000       1.17280000       0.84550000
H        2.41900000       3.86530000       1.98280000
H        3.72820000       3.65350000       0.81320000
H        0.90590000       4.30600000       0.04890000
H        1.69750000       3.93330000      -2.28740000
H        3.31710000       3.69220000      -1.61990000
H        2.85140000       1.21120000      -1.57320000
H        1.25330000       1.55040000      -2.24610000
