18
Properties=species:S:1:pos:R:3 gdb_54637=T pbc="F F F"
N       -0.05130000       1.32650000       0.12550000
C        0.02330000      -0.04390000       0.07430000
O        1.09280000      -0.62960000       0.09820000
C       -1.28400000      -0.74750000       0.00830000
C       -1.38160000      -2.08410000      -0.04850000
C       -2.78980000      -2.54690000      -0.02880000
C       -3.55720000      -2.18590000       1.23370000
C       -3.62500000      -1.27260000       0.04250000
C       -2.65780000      -0.08940000      -0.00900000
H        0.81660000       1.83070000       0.04140000
H       -0.90250000       1.81740000      -0.08570000
H       -0.52200000      -2.74260000      -0.07290000
H       -3.09070000      -3.42240000      -0.59250000
H       -4.44420000      -2.77010000       1.45570000
H       -2.98240000      -1.88310000       2.10300000
H       -4.56690000      -1.19810000      -0.48730000
H       -2.80300000       0.59600000       0.83630000
H       -2.80680000       0.50170000      -0.92400000
