16
Properties=species:S:1:pos:R:3 gdb_74725=T pbc="F F F"
C       -0.07890000       1.46190000       0.03180000
C       -0.03110000      -0.02130000      -0.03250000
C       -0.00740000      -0.91010000      -1.02870000
C        0.04780000      -2.24640000      -0.27350000
C       -1.05700000      -2.05160000       0.80540000
C        0.02030000      -0.98620000       1.19330000
O        1.03840000      -1.95040000       0.78010000
C        0.16330000      -0.43500000       2.52530000
N        0.24380000       0.03070000       3.57950000
H        0.79250000       1.86260000       0.56340000
H       -0.10310000       1.89840000      -0.96970000
H       -0.96340000       1.80930000       0.57970000
H       -0.02200000      -0.76080000      -2.09810000
H        0.22170000      -3.18050000      -0.80210000
H       -2.04240000      -1.70010000       0.49700000
H       -1.10610000      -2.86990000       1.52620000
