18
Properties=species:S:1:pos:R:3 gdb_11949=T pbc="F F F"
C        0.01950000       1.54850000       0.00870000
C        0.05450000       0.04950000       0.06430000
C        1.25610000      -0.80100000      -0.31820000
C        0.65080000      -0.94180000       1.04600000
C        1.33630000      -0.86720000       2.37210000
O        1.96840000      -2.09330000       2.71030000
O       -0.49290000      -1.81280000       0.97270000
C       -1.16680000      -0.86830000       0.09770000
H        0.99330000       1.97730000       0.26530000
H       -0.23560000       1.90080000      -0.99810000
H       -0.72170000       1.95970000       0.70320000
H        1.16380000      -1.61610000      -1.03150000
H        2.19540000      -0.25720000      -0.35920000
H        2.12330000      -0.10700000       2.34170000
H        0.60900000      -0.57170000       3.14420000
H        1.28800000      -2.77500000       2.67740000
H       -2.03120000      -0.42360000       0.60620000
H       -1.48970000      -1.32860000      -0.84420000
