20
Properties=species:S:1:pos:R:3 gdb_12277=T pbc="F F F"
C        0.67070000       1.46630000      -0.06980000
C        0.02850000       0.08360000       0.01230000
C        0.65170000      -1.00290000      -0.91720000
C        1.29390000      -1.71020000       0.31170000
C        2.80010000      -1.56130000       0.43620000
O        3.39380000      -2.33610000      -0.59570000
C        0.44410000      -0.78740000       1.24450000
O        1.04580000      -0.17440000       2.36340000
H        1.76640000       1.42130000      -0.03350000
H        0.40900000       1.95400000      -1.01450000
H        0.33140000       2.11220000       0.74690000
H       -1.05550000       0.19570000      -0.08670000
H       -0.09070000      -1.61650000      -1.43180000
H        1.36410000      -0.63710000      -1.66170000
H        1.05990000      -2.77510000       0.40000000
H        3.09790000      -0.50240000       0.34320000
H        3.12000000      -1.90100000       1.43300000
H        4.34930000      -2.26320000      -0.51420000
H       -0.41260000      -1.33210000       1.65020000
H        1.71660000       0.44040000       2.05060000
