21
Properties=species:S:1:pos:R:3 gdb_35543=T pbc="F F F"
C       -0.04780000      -1.16840000       0.48110000
C       -0.02430000       0.01690000       0.27490000
C       -0.01290000       1.44980000      -0.00960000
C       -0.74420000       2.29990000       1.07260000
C        0.32010000       2.66110000       2.11900000
C        0.72660000       1.55290000       3.13600000
C        2.10540000       1.40210000       2.43220000
C        1.71250000       2.50890000       1.40840000
C        1.41950000       2.06340000      -0.03170000
H       -0.06760000      -2.21350000       0.66710000
H       -0.49480000       1.59050000      -0.98390000
H       -1.11460000       3.21360000       0.59370000
H       -1.60680000       1.77710000       1.49470000
H        0.11550000       3.63030000       2.57900000
H        0.78300000       1.90040000       4.17060000
H        0.09890000       0.65960000       3.10760000
H        2.96290000       1.66200000       3.05790000
H        2.28790000       0.42010000       1.99020000
H        2.36510000       3.38440000       1.43080000
H        2.16150000       1.36520000      -0.42870000
H        1.40400000       2.93830000      -0.69180000
