23
Properties=species:S:1:pos:R:3 gdb_85943=T pbc="F F F"
C       -0.03610000       1.57480000      -0.19520000
C        0.04910000       0.07680000       0.03240000
O        0.77080000      -0.52780000      -1.03620000
C        1.19120000      -1.80670000      -0.58400000
C        0.17150000      -2.88750000      -0.95500000
C        2.57240000      -2.09180000      -1.16260000
O        1.26600000      -1.71870000       0.84490000
C        0.82290000      -0.42810000       1.26840000
C        2.00820000       0.42810000       1.70790000
H        0.95760000       2.02200000      -0.27440000
H       -0.57810000       1.78110000      -1.12200000
H       -0.57430000       2.05600000       0.62750000
H       -0.97140000      -0.33750000       0.07210000
H        0.10090000      -2.98910000      -2.04160000
H        0.47250000      -3.84850000      -0.52900000
H       -0.81590000      -2.63460000      -0.56070000
H        3.26690000      -1.30030000      -0.87350000
H        2.94740000      -3.04680000      -0.78560000
H        2.52530000      -2.13910000      -2.25410000
H        0.14250000      -0.57340000       2.11640000
H        2.66450000       0.65890000       0.86390000
H        1.67340000       1.36910000       2.15680000
H        2.59140000      -0.11790000       2.45440000
