14
Properties=species:S:1:pos:R:3 gdb_22878=T pbc="F F F"
O       -0.03820000       1.28670000       0.03760000
N        0.00390000      -0.08820000       0.03530000
C       -1.14560000      -0.64350000       0.03280000
C       -1.25110000      -2.15700000       0.04490000
O       -0.62560000      -2.68920000       1.20470000
C       -2.75380000      -2.37020000       0.03780000
C       -3.44760000      -1.22790000       0.00720000
C       -2.53580000      -0.05300000      -0.00620000
O       -2.85010000       1.11310000      -0.05200000
H        0.89730000       1.52230000       0.05150000
H       -0.79450000      -2.57810000      -0.86390000
H       -0.54170000      -3.64120000       1.08810000
H       -3.17700000      -3.36880000       0.07050000
H       -4.52410000      -1.11290000      -0.00200000
