18
Properties=species:S:1:pos:R:3 gdb_114417=T pbc="F F F"
O        0.88220000      -0.16600000       0.45920000
C       -0.03790000       0.29230000      -0.51740000
C       -1.33890000      -0.49880000      -0.45360000
C       -2.27280000      -0.24640000       0.76120000
C       -3.37950000       0.08490000      -0.27230000
N       -2.43860000      -0.17810000      -1.43800000
C       -2.52850000       1.25150000      -1.88010000
C       -3.47770000       1.55660000      -0.70320000
O       -4.05240000       2.52200000      -0.29950000
H        1.10760000      -1.07850000       0.24990000
H       -0.20310000       1.34820000      -0.28090000
H        0.38040000       0.24200000      -1.53590000
H       -1.08380000      -1.56090000      -0.56440000
H       -2.48250000      -1.11960000       1.38050000
H       -1.97850000       0.57910000       1.41390000
H       -4.31630000      -0.47620000      -0.22010000
H       -1.60020000       1.82790000      -1.92360000
H       -3.02280000       1.33400000      -2.85510000
