17
Properties=species:S:1:pos:R:3 gdb_20872=T pbc="F F F"
C       -0.07160000       1.56840000      -0.01170000
C       -0.10560000       0.03980000      -0.05730000
C        0.76680000      -0.53610000      -1.18810000
C        0.79200000      -2.03000000      -1.19280000
N        1.23420000      -2.81690000      -0.22380000
C        1.02250000      -4.06740000      -0.71780000
N        0.48080000      -4.11700000      -1.92300000
N        0.33980000      -2.79860000      -2.20850000
H        0.94740000       1.93730000       0.14900000
H       -0.43830000       2.00570000      -0.94740000
H       -0.69610000       1.95150000       0.80080000
H        0.24440000      -0.37840000       0.89190000
H       -1.13720000      -0.30920000      -0.18680000
H        0.41320000      -0.17170000      -2.16050000
H        1.79410000      -0.17060000      -1.07090000
H        1.27560000      -4.96610000      -0.17520000
H       -0.05580000      -2.51780000      -3.09090000
