15
Properties=species:S:1:pos:R:3 gdb_124215=T pbc="F F F"
C       -0.17740000       1.43490000      -0.10350000
C        0.01110000      -0.03400000       0.22100000
N        0.22250000      -0.54640000       1.36420000
N       -0.08330000      -0.82820000      -0.92120000
C        0.03650000      -2.19440000      -1.04210000
N        0.23420000      -2.74150000      -2.24330000
N        0.23930000      -4.03200000      -1.91970000
N        0.06980000      -4.28380000      -0.63680000
N       -0.06780000      -3.11920000      -0.05110000
H        0.57080000       1.77810000      -0.82750000
H       -1.16640000       1.61520000      -0.53920000
H       -0.08080000       2.03750000       0.80020000
H        0.24480000       0.18190000       2.07500000
H       -0.10330000      -0.35160000      -1.80810000
H        0.37090000      -4.76310000      -2.60170000
