18
Properties=species:S:1:pos:R:3 gdb_50988=T pbc="F F F"
O        3.66920000       1.56640000      -1.74760000
C        3.24890000       1.54660000      -0.61800000
C        1.99690000       2.25140000      -0.13900000
C        1.28610000       3.09320000      -1.18010000
C        0.71430000       2.31640000      -2.36640000
C       -0.28630000       1.32930000      -1.95490000
N       -1.06260000       0.55050000      -1.59900000
C        0.52390000       4.30920000      -0.71070000
C        1.81910000       4.47400000      -1.46760000
H        3.78080000       0.97700000       0.17760000
H        1.32940000       1.47860000       0.27310000
H        2.28480000       2.86370000       0.72680000
H        0.24740000       3.00690000      -3.07660000
H        1.52340000       1.80300000      -2.89520000
H       -0.40260000       4.55520000      -1.21850000
H        0.51440000       4.52850000       0.35140000
H        2.69720000       4.80070000      -0.92140000
H        1.77770000       4.83700000      -2.48870000
