17
Properties=species:S:1:pos:R:3 gdb_76073=T pbc="F F F"
C        0.15430000       1.39980000       0.25710000
C       -0.06610000      -0.07190000       0.00690000
C        0.60960000      -0.80480000      -1.14950000
C        1.50420000      -0.07900000      -2.01890000
N        2.22990000       0.48230000      -2.72370000
N        0.96550000      -1.04490000       0.23880000
C        2.18970000      -0.83530000       0.89360000
C        3.37070000      -1.54240000       0.26670000
O        2.23750000      -0.20200000       1.92190000
H        1.11390000       1.74110000      -0.13710000
H       -0.64260000       1.97900000      -0.21840000
H        0.14280000       1.59730000       1.33140000
H       -1.06500000      -0.43550000       0.24510000
H        0.08200000      -1.61610000      -1.64560000
H        3.69820000      -1.00480000      -0.62970000
H        4.18930000      -1.56440000       0.98570000
H        3.10490000      -2.55920000      -0.03510000
