23
Properties=species:S:1:pos:R:3 gdb_57340=T pbc="F F F"
C        0.13660000       1.49190000       0.14470000
C        0.08580000      -0.04130000       0.03660000
C        0.75860000      -0.66190000       1.27230000
O       -1.28820000      -0.46370000      -0.01230000
C        0.68970000      -0.57040000      -1.30730000
C        0.57840000      -2.11290000      -1.40890000
C       -0.04190000       0.03370000      -2.53280000
C        2.16450000      -0.24070000      -1.49140000
O        2.89160000       0.36150000      -0.74210000
H        1.16450000       1.85700000       0.11190000
H       -0.44170000       1.96600000      -0.65110000
H       -0.30100000       1.80270000       1.10080000
H        0.29410000      -0.25770000       2.17950000
H        0.63030000      -1.74610000       1.29240000
H        1.82290000      -0.42270000       1.30530000
H       -1.71070000      -0.16150000       0.79820000
H       -0.46650000      -2.40930000      -1.30240000
H        0.93930000      -2.45740000      -2.38320000
H        1.16280000      -2.62340000      -0.63950000
H        0.08170000       1.11740000      -2.59800000
H        0.34520000      -0.40110000      -3.45980000
H       -1.10820000      -0.18890000      -2.46510000
H        2.56140000      -0.63230000      -2.45870000
