21
Properties=species:S:1:pos:R:3 gdb_107990=T pbc="F F F"
C       -0.00310000       1.37760000       0.03090000
O        0.04640000      -0.03480000      -0.03460000
C        0.68580000      -0.52550000      -1.15370000
C        2.15300000      -0.32100000      -1.61590000
C        1.51140000      -1.30350000      -2.62600000
C        0.79530000      -2.04390000      -1.44950000
C       -0.56350000      -2.55850000      -1.92510000
C       -1.00290000      -1.36420000      -2.82290000
C        0.20710000      -0.44600000      -2.65060000
H        1.00370000       1.81670000       0.06960000
H       -0.53730000       1.80660000      -0.82870000
H       -0.53850000       1.63750000       0.94670000
H        2.42750000       0.66470000      -2.00240000
H        2.93370000      -0.72510000      -0.96520000
H        1.98970000      -1.76840000      -3.48600000
H        1.39270000      -2.66280000      -0.77730000
H       -0.47770000      -3.49680000      -2.48210000
H       -1.24860000      -2.73060000      -1.08980000
H       -1.15930000      -1.65480000      -3.86660000
H       -1.92600000      -0.89360000      -2.47050000
H        0.22520000       0.51430000      -3.17000000
