18
Properties=species:S:1:pos:R:3 gdb_98794=T pbc="F F F"
O        0.09090000       1.34850000       0.11800000
C        0.07440000      -0.04660000       0.10120000
C       -1.37370000      -0.54170000       0.03420000
O       -2.28710000       0.27680000       0.00670000
N       -1.58760000      -1.87400000       0.00780000
C       -0.56030000      -2.91860000       0.04030000
C       -1.38670000      -4.17560000      -0.00820000
C       -2.68690000      -3.90370000      -0.05980000
C       -2.94670000      -2.42410000      -0.05390000
H       -0.85030000       1.59610000       0.08290000
H        0.63210000      -0.44200000      -0.76380000
H        0.55700000      -0.46240000       1.00130000
H        0.12920000      -2.84170000      -0.81360000
H        0.05390000      -2.86080000       0.95130000
H       -0.93250000      -5.15790000       0.00000000
H       -3.49020000      -4.62790000      -0.10170000
H       -3.54420000      -2.09250000       0.80590000
H       -3.47240000      -2.07270000      -0.95170000
