11
Properties=species:S:1:pos:R:3 gdb_130917=T pbc="F F F"
O       -0.04560000       0.00010000      -0.00070000
C       -0.00070000       1.20060000       0.00680000
C        1.26630000       1.98350000      -0.00080000
N        2.44310000       1.40370000      -0.01790000
O        3.34720000       2.41540000      -0.01970000
N        2.75650000       3.63680000      -0.00430000
C        1.46550000       3.40300000       0.00790000
C        0.46290000       4.50430000       0.02700000
O        0.75010000       5.67080000       0.03410000
H       -0.91970000       1.82120000       0.02000000
H       -0.59150000       4.16040000       0.03450000
