17
Properties=species:S:1:pos:R:3 gdb_32243=T pbc="F F F"
C       -0.05190000       1.44280000      -0.00930000
N        0.08190000      -0.00480000       0.01570000
C        0.64170000      -0.67320000      -1.04270000
N        1.24060000       0.01710000      -2.01170000
C        1.76930000      -0.69040000      -3.01630000
N        1.75320000      -2.00680000      -3.16780000
C        1.16640000      -2.69270000      -2.17050000
C        0.59660000      -2.09160000      -1.06630000
N       -0.06050000      -2.77740000      -0.02410000
H        0.92830000       1.89810000      -0.15900000
H       -0.70830000       1.79560000      -0.81570000
H       -0.45490000       1.77180000       0.95120000
H       -0.66520000      -0.51490000       0.46550000
H        2.25750000      -0.11310000      -3.79810000
H        1.15430000      -3.77850000      -2.26490000
H       -0.01400000      -3.78320000      -0.13720000
H        0.31170000      -2.53300000       0.88880000
