19
Properties=species:S:1:pos:R:3 gdb_109654=T pbc="F F F"
C       -0.11240000       1.43390000      -0.28950000
C       -0.13170000       0.03160000       0.33110000
C       -1.46320000      -0.66300000       0.13880000
C       -1.83630000      -1.32920000      -1.13930000
O       -0.85430000      -1.40150000      -2.13430000
C       -1.54770000      -2.19540000       0.10330000
O       -0.38040000      -2.95130000       0.08010000
C       -2.69700000      -2.85490000       0.75590000
O       -3.77140000      -2.32290000       0.92670000
H        0.84970000       1.92480000      -0.11400000
H       -0.27530000       1.38210000      -1.37020000
H       -0.89480000       2.06980000       0.13860000
H        0.66930000      -0.57590000      -0.09740000
H        0.07380000       0.09340000       1.40610000
H       -2.31210000      -0.21590000       0.65110000
H       -2.86590000      -1.27210000      -1.48340000
H       -1.18050000      -1.97530000      -2.83570000
H        0.00110000      -2.83980000      -0.80260000
H       -2.49560000      -3.90200000       1.06840000
