12
Properties=species:S:1:pos:R:3 gdb_12309=T pbc="F F F"
O       -0.04590000       0.14160000       0.60910000
C       -0.04200000       1.23430000       0.11490000
C       -1.31280000       1.94260000      -0.34030000
O       -1.02500000       3.11570000      -1.08130000
C       -0.11440000       3.91470000      -0.41050000
O        1.19400000       3.32490000      -0.36470000
C        1.29680000       2.00470000      -0.08050000
O        2.35800000       1.46370000      -0.00140000
H       -1.89510000       1.27460000      -0.97930000
H       -1.91590000       2.17220000       0.55370000
H        0.00250000       4.84310000      -0.96890000
H       -0.44000000       4.12370000       0.62100000
