19
Properties=species:S:1:pos:R:3 gdb_23208=T pbc="F F F"
C       -0.66170000       1.30370000       0.03940000
C        0.08860000      -0.01740000      -0.04760000
C        1.44540000      -0.02650000      -0.83650000
C        2.10460000      -0.64040000       0.38460000
N        3.24230000      -1.11370000       0.67640000
O        4.11890000      -1.02510000      -0.42020000
C        0.86200000      -0.50850000       1.20290000
C        0.72100000      -0.04340000       2.60810000
N        0.42000000      -1.43640000       2.24450000
H       -0.00770000       2.10520000       0.39890000
H       -1.04860000       1.59840000      -0.94190000
H       -1.51650000       1.23680000       0.72200000
H       -0.57610000      -0.80600000      -0.41800000
H        1.48060000      -0.63660000      -1.74230000
H        1.82460000       0.97190000      -1.07800000
H        4.91890000      -1.43290000      -0.07170000
H        1.61420000       0.08560000       3.21280000
H       -0.09770000       0.63340000       2.84050000
H       -0.58750000      -1.56690000       2.17200000
