18
Properties=species:S:1:pos:R:3 gdb_29994=T pbc="F F F"
C       -0.09470000       1.58150000       0.01960000
C        0.00720000       0.04570000       0.02750000
C        0.81610000      -0.51710000      -1.14270000
C        1.85030000      -1.26890000      -0.71590000
C        1.85120000      -1.29830000       0.74760000
C        0.78280000      -0.53610000       1.17260000
N        0.76030000      -0.54090000       2.53570000
C        1.81850000      -1.30950000       2.99020000
C        2.51560000      -1.79590000       1.90260000
H        0.90130000       2.03250000       0.04240000
H       -0.61060000       1.93220000      -0.87980000
H       -0.65550000       1.94490000       0.88780000
H       -1.01190000      -0.36910000      -0.01010000
H        0.55590000      -0.30490000      -2.17180000
H        2.56640000      -1.77420000      -1.35250000
H        0.09880000      -0.07010000       3.12790000
H        1.98210000      -1.44370000       4.04760000
H        3.38900000      -2.42800000       1.95260000
