19
Properties=species:S:1:pos:R:3 gdb_37178=T pbc="F F F"
C       -0.03580000       1.46650000       0.18920000
C        1.49820000       1.49550000      -0.12180000
C        1.25510000       0.13230000      -0.78550000
C        0.40250000       0.14760000      -2.10040000
C       -0.45260000      -0.79080000      -1.23250000
C        0.51490000      -1.99830000      -1.01810000
N        1.65690000      -2.08110000      -1.96420000
C        1.79760000      -1.30080000      -0.71500000
N       -0.02170000      -0.03830000       0.02650000
H       -0.33510000       1.74730000       1.20120000
H       -0.63830000       2.03920000      -0.52320000
H        1.87810000       2.29880000      -0.75600000
H        2.10070000       1.42760000       0.78760000
H       -0.06700000       1.11330000      -2.27550000
H        0.84120000      -0.24040000      -3.01710000
H       -1.50710000      -1.01320000      -1.40350000
H        0.18270000      -2.88070000      -0.48540000
H        2.11120000      -2.98390000      -1.83830000
H        2.46810000      -1.61840000       0.07410000
