20
Properties=species:S:1:pos:R:3 gdb_60328=T pbc="F F F"
C        0.13000000       1.39530000      -0.07870000
C       -0.09480000      -0.12200000      -0.09100000
C        0.41690000      -0.77610000       1.19720000
C       -1.58650000      -0.42070000      -0.33180000
N       -1.87760000      -1.83260000      -0.50600000
C       -2.62450000      -2.56110000       0.35070000
O       -3.16240000      -2.17250000       1.37330000
C       -2.76500000      -4.02480000      -0.08040000
O       -2.25720000      -4.48150000      -1.07260000
H        1.18980000       1.63220000       0.05460000
H       -0.20300000       1.86090000      -1.01250000
H       -0.42080000       1.86590000       0.74420000
H        0.46710000      -0.54220000      -0.93830000
H        0.26980000      -1.85970000       1.18260000
H        1.48600000      -0.58470000       1.33280000
H       -0.11020000      -0.37920000       2.07210000
H       -2.18470000      -0.08620000       0.52100000
H       -1.93160000       0.12720000      -1.21780000
H       -1.51220000      -2.33450000      -1.30380000
H       -3.38420000      -4.61860000       0.62040000
