21
Properties=species:S:1:pos:R:3 gdb_62928=T pbc="F F F"
C       -0.09520000       1.60720000       0.01460000
C        0.02520000       0.08520000       0.01060000
C       -1.35060000      -0.56490000      -0.16760000
C        1.08920000      -0.62630000      -0.87710000
C        2.42110000       0.10830000      -0.91080000
O        2.71920000       0.70170000       0.35150000
C        2.12430000       0.07860000       1.48840000
C        0.84300000      -0.65090000       1.11320000
O        1.22550000      -1.66490000       0.13750000
H        0.86730000       2.10330000       0.13980000
H       -0.54430000       1.95340000      -0.92360000
H       -0.76040000       1.93180000       0.82310000
H       -1.80880000      -0.24700000      -1.11090000
H       -1.27320000      -1.65470000      -0.17150000
H       -2.02580000      -0.26860000       0.64300000
H        0.79740000      -1.02230000      -1.85540000
H        3.20410000      -0.61100000      -1.19390000
H        2.41610000       0.92330000      -1.64440000
H        2.81690000      -0.64970000       1.93610000
H        1.93820000       0.87560000       2.21820000
H        0.32280000      -1.06970000       1.98100000
