17
Properties=species:S:1:pos:R:3 gdb_61155=T pbc="F F F"
C        0.29810000       1.40940000       0.23960000
C       -0.01360000      -0.05310000      -0.14690000
C       -1.52570000      -0.36460000      -0.10550000
C       -2.08690000      -0.23790000       1.23290000
C       -2.52830000      -0.13260000       2.34610000
C        0.54140000      -0.33530000      -1.52680000
O       -0.12150000      -0.43920000      -2.53390000
C        2.06390000      -0.50900000      -1.66380000
O        2.82700000      -0.51130000      -0.73460000
H        1.37500000       1.58850000       0.26350000
H       -0.16000000       2.10600000      -0.47050000
H       -0.11000000       1.61420000       1.23210000
H        0.51870000      -0.70120000       0.55870000
H       -2.04790000       0.30310000      -0.80050000
H       -1.69790000      -1.37870000      -0.48440000
H       -2.93400000      -0.04460000       3.32340000
H        2.37890000      -0.65590000      -2.71860000
