16
Properties=species:S:1:pos:R:3 gdb_29134=T pbc="F F F"
C        0.02030000       1.51740000       0.23680000
C       -0.01990000       0.04260000      -0.03370000
C       -1.16190000      -0.60330000      -0.31530000
O       -1.18610000      -1.95740000      -0.56590000
C       -0.03550000      -2.67300000      -0.53050000
N        0.02170000      -3.92250000      -0.76440000
C        1.19010000      -1.90110000      -0.20120000
N        2.31540000      -2.64370000      -0.14510000
N        1.19780000      -0.62390000       0.02430000
H        0.67760000       2.02030000      -0.48090000
H       -0.97420000       1.96620000       0.17210000
H        0.42750000       1.71260000       1.23480000
H       -2.14890000      -0.16980000      -0.37930000
H       -0.90010000      -4.30290000      -0.97870000
H        2.25580000      -3.61210000      -0.41300000
H        3.20010000      -2.18600000      -0.01370000
