18
Properties=species:S:1:pos:R:3 gdb_53065=T pbc="F F F"
C       -0.06870000       1.44470000       0.06120000
C       -0.00320000      -0.00700000       0.00860000
C        0.06920000      -1.21200000      -0.03540000
C        0.08600000      -2.62470000      -0.08490000
C        1.15910000      -3.41900000      -0.25960000
C        0.78140000      -4.85350000      -0.16960000
N        0.22350000      -5.21730000       1.17060000
C       -0.69030000      -4.88570000       0.05870000
C       -1.19220000      -3.44840000       0.08610000
H        0.55870000       1.84310000       0.86680000
H        0.27720000       1.89270000      -0.87750000
H       -1.09320000       1.79150000       0.23590000
H        2.17250000      -3.06780000      -0.40560000
H        1.31140000      -5.61360000      -0.73310000
H        0.25280000      -6.23220000       1.26250000
H       -1.31760000      -5.66820000      -0.35420000
H       -1.69840000      -3.20710000       1.02660000
H       -1.89950000      -3.24700000      -0.72760000
