17
Properties=species:S:1:pos:R:3 gdb_33879=T pbc="F F F"
C        0.00620000      -1.14220000      -0.05480000
C        0.03980000       0.05890000      -0.00630000
C        0.02490000       1.48350000       0.08140000
O        0.35530000       2.24270000      -1.10630000
C        1.18790000       2.38950000       0.04820000
C        0.75510000       3.47110000       1.06030000
C       -0.73200000       3.70840000       0.67710000
C       -0.88020000       2.22370000       1.10520000
C        0.19540000       2.54710000       2.20070000
H       -0.00980000      -2.20280000      -0.10680000
H        2.21660000       2.06120000      -0.05520000
H        1.44890000       4.28780000       1.25590000
H       -1.22580000       4.37680000       1.38430000
H       -0.96640000       3.97810000      -0.35040000
H       -1.84040000       1.76690000       1.33790000
H        0.82680000       1.72500000       2.54970000
H       -0.20690000       3.10530000       3.04970000
