16
Properties=species:S:1:pos:R:3 gdb_127601=T pbc="F F F"
C       -0.01350000       1.41760000      -0.02610000
N       -0.00990000      -0.03790000      -0.00490000
N       -0.05380000      -0.65680000      -1.17330000
C       -0.05450000      -1.95520000      -1.18030000
C       -0.00160000      -2.69270000       0.05960000
N       -0.03990000      -4.05420000       0.02020000
N        0.04900000      -2.09070000       1.21420000
C        0.03600000      -0.70830000       1.24440000
N        0.06810000       0.02460000       2.29300000
H        0.88430000       1.80010000       0.46590000
H       -0.04910000       1.72780000      -1.06950000
H       -0.87800000       1.79670000       0.52470000
H       -0.09860000      -2.44070000      -2.14840000
H        0.18940000      -4.53230000      -0.83410000
H        0.15990000      -4.53480000       0.88330000
H        0.10000000      -0.58550000       3.10790000
