17
Properties=species:S:1:pos:R:3 gdb_24444=T pbc="F F F"
C       -0.00890000       1.43070000       0.07580000
C        1.44180000       1.94900000       0.02000000
O        2.21780000       1.45150000       1.11940000
C        1.96470000       0.13030000       1.29770000
C        0.92980000      -0.61580000       0.78960000
N       -0.10990000      -0.02890000       0.01700000
C        1.10180000      -1.94430000       1.28580000
C        2.23120000      -1.94660000       2.06880000
N        2.75450000      -0.66490000       2.07810000
H       -0.45780000       1.77320000       1.01650000
H       -0.58180000       1.87070000      -0.74580000
H        1.91520000       1.63900000      -0.92260000
H        1.47870000       3.03860000       0.09480000
H       -0.09510000      -0.35470000      -0.94410000
H        0.46470000      -2.79240000       1.08740000
H        2.70930000      -2.73870000       2.62000000
H        3.56500000      -0.35280000       2.58230000
