16
Properties=species:S:1:pos:R:3 gdb_128718=T pbc="F F F"
C       -0.27420000       1.45740000      -0.31840000
O       -1.14870000       0.46460000      -0.86720000
C       -1.51470000      -0.49710000      -0.03470000
N       -1.12530000      -0.58640000       1.21620000
O       -1.78660000      -1.75550000       1.64970000
C       -2.47760000      -2.21350000       0.60280000
C       -3.24930000      -3.48300000       0.75540000
N       -4.45740000      -3.43160000      -0.06320000
N       -2.35700000      -1.48980000      -0.46770000
H       -0.08260000       2.16170000      -1.12740000
H       -0.75020000       1.96440000       0.52610000
H        0.66040000       1.00130000       0.02150000
H       -2.55850000      -4.31100000       0.51160000
H       -3.51480000      -3.60010000       1.81160000
H       -4.21160000      -3.12640000      -1.00020000
H       -4.85610000      -4.36100000      -0.14260000
