18
Properties=species:S:1:pos:R:3 gdb_107298=T pbc="F F F"
O        0.16440000       1.35150000       0.25050000
C        0.08610000      -0.02600000      -0.08630000
C       -1.32260000      -0.52470000      -0.14060000
N       -2.07440000      -0.87280000       1.09000000
C       -1.90320000      -1.89590000       0.03130000
C       -2.95420000      -1.60280000      -1.07360000
O       -4.23160000      -1.11030000      -0.64710000
C       -3.78400000       0.26820000      -0.76010000
C       -2.37860000      -0.17850000      -1.22330000
H       -0.33170000       1.48110000       1.06590000
H        0.55940000      -0.11300000      -1.07040000
H        0.66720000      -0.65240000       0.61260000
H       -1.38910000      -1.09620000       1.81310000
H       -1.42150000      -2.83990000       0.26020000
H       -3.00890000      -2.33870000      -1.88000000
H       -4.35900000       0.80340000      -1.52460000
H       -3.83730000       0.79490000       0.19610000
H       -1.98580000       0.20370000      -2.16350000
