13
Properties=species:S:1:pos:R:3 gdb_133329=T pbc="F F F"
N        0.05710000       1.36980000      -0.07920000
C        0.01370000       0.02140000       0.00230000
C       -1.11180000      -0.74650000       0.08740000
F       -2.30790000      -0.15240000       0.05420000
N       -1.14760000      -2.09110000       0.20880000
N       -0.06470000      -2.76010000       0.24630000
N        1.10010000      -2.06020000       0.15430000
C        1.28420000      -0.69100000       0.02150000
N        2.38940000      -0.04520000      -0.08280000
H        0.96080000       1.76280000      -0.29730000
H       -0.77770000       1.88200000      -0.30290000
H        1.90960000      -2.66330000       0.18380000
H        3.20790000      -0.65110000      -0.06410000
