19
Properties=species:S:1:pos:R:3 gdb_6719=T pbc="F F F"
C       -0.06830000       1.28940000      -0.50640000
C        0.00060000      -0.10450000       0.11510000
O        0.48670000      -0.05060000       1.45850000
C       -1.33940000      -0.84530000       0.03960000
C       -1.24100000      -2.27660000       0.58260000
N       -2.51540000      -2.98310000       0.58690000
C       -3.04530000      -3.53110000      -0.53530000
O       -2.52690000      -3.49910000      -1.63290000
H        0.89780000       1.79350000      -0.41710000
H       -0.33870000       1.23720000      -1.56570000
H       -0.82440000       1.90380000      -0.00070000
H        0.75760000      -0.69370000      -0.41840000
H       -0.07900000       0.55960000       1.94510000
H       -2.09450000      -0.28450000       0.60970000
H       -1.68520000      -0.88540000      -0.99850000
H       -0.54400000      -2.85140000      -0.03570000
H       -0.84900000      -2.26070000       1.60180000
H       -3.04390000      -3.04060000       1.44190000
H       -4.01710000      -4.02750000      -0.33770000
