21
Properties=species:S:1:pos:R:3 gdb_98829=T pbc="F F F"
C       -0.73280000       1.31670000       0.27690000
C       -0.24480000      -0.12270000       0.15460000
C        0.79520000      -0.35330000      -0.98030000
C        1.92880000      -0.39060000       0.07620000
C        0.87000000      -0.57350000       1.19330000
C        1.00890000       0.25180000       2.44140000
O        1.61820000       1.30420000       2.47830000
C        0.32200000      -0.23920000       3.70840000
O        0.44820000       0.67870000       4.75070000
H        0.10070000       2.02200000       0.34550000
H       -1.33110000       1.58100000      -0.60150000
H       -1.36130000       1.45990000       1.16260000
H       -1.10230000      -0.80090000       0.13520000
H        0.65660000      -1.31430000      -1.48240000
H        0.85450000       0.42870000      -1.74170000
H        2.67750000      -1.17990000      -0.01650000
H        2.43740000       0.56900000       0.18770000
H        0.71760000      -1.62350000       1.46070000
H       -0.73740000      -0.44000000       3.47510000
H        0.76510000      -1.21640000       3.97030000
H        1.00450000       1.38760000       4.38780000
