17
Properties=species:S:1:pos:R:3 gdb_33923=T pbc="F F F"
C        0.00490000      -1.17570000      -0.02200000
C        0.03500000       0.02600000      -0.00480000
C        0.02940000       1.46810000      -0.01290000
C       -1.17530000       2.12820000      -0.66700000
C       -1.11700000       3.66690000      -0.59500000
C        0.23590000       4.20750000      -0.97660000
C        1.35770000       3.53270000      -0.71980000
C        1.31590000       2.21430000      -0.04270000
O        0.53490000       2.10790000       1.16690000
H       -0.01010000      -2.23750000      -0.02760000
H       -1.20110000       1.79990000      -1.71310000
H       -2.09350000       1.76270000      -0.19650000
H       -1.89370000       4.08790000      -1.24160000
H       -1.35690000       3.98740000       0.42610000
H        0.28190000       5.18060000      -1.45710000
H        2.33170000       3.92320000      -0.99670000
H        2.23760000       1.63790000      -0.01090000
