20
Properties=species:S:1:pos:R:3 gdb_118597=T pbc="F F F"
C       -0.01860000       1.62540000      -0.02890000
C        0.02680000       0.09500000      -0.03490000
C       -1.36900000      -0.53190000       0.03740000
C       -1.36560000      -2.07850000       0.04300000
C       -2.79350000      -2.64960000       0.23400000
C       -2.83280000      -4.16210000       0.34430000
O       -3.36960000      -4.75330000       1.24470000
C       -0.75900000      -2.60110000      -1.18760000
N       -0.29610000      -3.00320000      -2.16780000
H        0.98870000       2.04880000      -0.07800000
H       -0.58260000       2.00790000      -0.88650000
H       -0.49680000       2.00670000       0.88000000
H        0.53670000      -0.25580000      -0.93970000
H        0.62640000      -0.25920000       0.81390000
H       -1.87700000      -0.20290000       0.95180000
H       -1.98060000      -0.18450000      -0.80440000
H       -0.74070000      -2.41850000       0.87970000
H       -3.24190000      -2.22750000       1.13680000
H       -3.40850000      -2.35580000      -0.62740000
H       -2.32550000      -4.70610000      -0.48240000
