18
Properties=species:S:1:pos:R:3 gdb_80967=T pbc="F F F"
C       -0.05530000       1.56270000      -0.09190000
C        0.10210000       0.05800000      -0.00250000
N        1.34770000      -0.60560000      -0.66930000
C        2.13200000      -0.14500000       0.57280000
C        0.80200000      -0.65210000       1.17160000
O        0.34300000      -0.66720000       2.47100000
C        1.00820000      -1.84890000       0.15080000
C       -0.11860000      -2.74880000      -0.26220000
O       -0.91380000      -2.55330000      -1.14760000
H       -0.17960000       1.85510000      -1.13940000
H       -0.96240000       1.85760000       0.44540000
H        0.77520000       2.13560000       0.32460000
H       -0.80810000      -0.41950000      -0.36120000
H        3.03640000      -0.73180000       0.75480000
H        2.34740000       0.92160000       0.59100000
H        1.02450000      -1.03610000       3.04430000
H        1.88850000      -2.47000000       0.35690000
H       -0.16710000      -3.67740000       0.35380000
