16
Properties=species:S:1:pos:R:3 gdb_36593=T pbc="F F F"
N        0.31480000      -0.05180000       1.56120000
C        0.12400000       0.54480000       0.58950000
C       -0.05030000       1.30470000      -0.66660000
N        1.07300000       2.15600000      -1.03510000
C        1.28910000       3.32320000      -0.21570000
C        1.89860000       3.25700000       1.18840000
C        2.70840000       3.78100000       0.03830000
C        0.29060000       4.34820000      -0.43850000
N       -0.52860000       5.14880000      -0.59830000
H       -0.23160000       0.58990000      -1.47550000
H       -0.95030000       1.92320000      -0.58480000
H        1.92600000       1.62320000      -1.14650000
H        1.53660000       3.96030000       1.92890000
H        2.11650000       2.26570000       1.56590000
H        3.49400000       3.15340000      -0.37030000
H        2.90920000       4.84350000      -0.02200000
