16
Properties=species:S:1:pos:R:3 gdb_129361=T pbc="F F F"
N        0.11700000       1.14870000       0.64210000
C       -0.02430000       0.00840000       0.11970000
O       -1.06680000      -0.76880000       0.46660000
C       -1.08960000      -2.09040000      -0.08510000
C       -2.48190000      -2.62260000       0.00530000
N       -2.69000000      -3.86590000       0.43360000
N       -4.02300000      -4.02600000       0.35460000
C       -4.66640000      -2.92170000      -0.09770000
C       -3.69260000      -1.97960000      -0.34180000
H        0.93920000       1.60690000       0.25450000
H        0.63320000      -0.44830000      -0.63440000
H       -0.75260000      -2.05220000      -1.13090000
H       -0.41310000      -2.75100000       0.46870000
H       -4.42520000      -4.90210000       0.64100000
H       -5.73940000      -2.89330000      -0.20210000
H       -3.82770000      -0.97200000      -0.69770000
