16
Properties=species:S:1:pos:R:3 gdb_50287=T pbc="F F F"
O        0.17510000      -0.10280000      -0.30030000
C        0.09470000       1.08960000      -0.11140000
N        1.13760000       1.88070000       0.27620000
C        2.57560000       1.58030000       0.13170000
C        2.83550000       3.07530000      -0.11760000
C        2.00380000       3.60530000      -1.23650000
C        1.31000000       3.31290000       0.07490000
C        0.68030000       4.33510000       0.93070000
O        0.83100000       5.52400000       0.77820000
H       -0.84930000       1.66740000      -0.19280000
H        3.01450000       1.20370000       1.05910000
H        2.80430000       0.89410000      -0.68900000
H        3.61740000       3.65620000       0.35090000
H        2.11940000       4.66490000      -1.43740000
H        1.76650000       2.98170000      -2.09380000
H        0.06360000       3.91700000       1.75590000
