17
Properties=species:S:1:pos:R:3 gdb_43983=T pbc="F F F"
O        0.22790000       0.19070000      -0.59860000
C        0.12130000       1.28520000      -0.12300000
C       -1.10340000       2.24460000       0.02410000
C       -0.08110000       3.39840000       0.04770000
C        0.75400000       3.30210000       1.28130000
C        1.10900000       2.39440000       0.12260000
O        2.14880000       2.79570000      -0.69440000
C        1.55430000       3.61720000      -1.72460000
C        0.32110000       4.33440000      -1.08140000
H       -1.72120000       2.18970000      -0.87650000
H       -1.74340000       2.15130000       0.90540000
H        1.49750000       4.07610000       1.43680000
H        0.31930000       2.89530000       2.18960000
H        2.32660000       4.30150000      -2.08440000
H        1.23150000       2.98120000      -2.56000000
H       -0.48050000       4.46620000      -1.81260000
H        0.59360000       5.32550000      -0.70730000
