19
Properties=species:S:1:pos:R:3 gdb_76100=T pbc="F F F"
O       -0.13910000       1.26810000      -0.24110000
C       -0.16990000      -0.10180000      -0.00440000
C       -0.42300000      -0.59980000       1.41900000
C       -0.56140000       0.39140000       2.44000000
C       -0.62910000       1.27450000       3.25710000
C       -1.48310000      -0.76040000       0.31370000
C       -2.75390000       0.02140000       0.32810000
C       -3.85420000      -0.32700000      -0.64500000
C       -4.03010000      -0.61080000       0.82600000
H        0.09710000       1.71180000       0.58410000
H        0.55830000      -0.65730000      -0.59210000
H        0.09980000      -1.50270000       1.71930000
H       -0.71880000       2.02300000       4.00500000
H       -1.58720000      -1.78620000      -0.03190000
H       -2.62240000       1.07590000       0.53860000
H       -4.41920000       0.48480000      -1.08920000
H       -3.69710000      -1.17090000      -1.30900000
H       -3.99040000      -1.64560000       1.15040000
H       -4.71810000       0.00470000       1.39470000
