20
Properties=species:S:1:pos:R:3 gdb_17963=T pbc="F F F"
C        0.02460000       1.51920000       0.11400000
C        1.43090000       2.13260000       0.05400000
C        2.22320000       1.75260000      -1.21450000
C        1.47280000       2.06330000      -2.47770000
C        0.58870000       1.24210000      -3.05830000
C        0.23290000      -0.11540000      -2.63220000
C        0.03520000      -0.63250000      -1.41030000
C       -0.03010000      -0.01040000      -0.03530000
H       -0.41670000       1.78030000       1.08310000
H       -0.61570000       1.97810000      -0.64580000
H        1.34270000       3.22430000       0.11840000
H        2.00620000       1.81750000       0.93410000
H        3.18490000       2.27800000      -1.20720000
H        2.44320000       0.67890000      -1.18450000
H        1.64990000       3.03570000      -2.93270000
H        0.13080000       1.56270000      -3.99330000
H        0.10840000      -0.81120000      -3.46260000
H       -0.17690000      -1.70170000      -1.38370000
H        0.74790000      -0.47310000       0.59270000
H       -0.97350000      -0.36210000       0.40700000
