20
Properties=species:S:1:pos:R:3 gdb_63214=T pbc="F F F"
C        0.09240000       1.52520000      -0.20620000
C       -0.02530000       0.01100000       0.00880000
C       -1.49690000      -0.42150000       0.00560000
N        0.67370000      -0.68100000      -1.10690000
C        1.59310000      -1.37500000      -0.58300000
O        1.76680000      -1.37100000       0.75810000
C        0.75030000      -0.48620000       1.25920000
C        1.14000000       0.31120000       2.46280000
C        0.18220000      -0.86150000       2.59060000
H        1.13890000       1.84120000      -0.19260000
H       -0.33400000       1.79210000      -1.17690000
H       -0.44710000       2.07900000       0.56920000
H       -1.94700000      -0.18380000      -0.96190000
H       -1.58760000      -1.49840000       0.17080000
H       -2.06470000       0.09780000       0.78470000
H        2.29330000      -2.00520000      -1.12070000
H        2.14980000       0.17830000       2.83420000
H        0.74460000       1.31510000       2.56930000
H       -0.86450000      -0.65500000       2.78400000
H        0.55830000      -1.77040000       3.04660000
