20
Properties=species:S:1:pos:R:3 gdb_113043=T pbc="F F F"
C       -0.11610000       1.41620000       0.49200000
C       -0.05210000      -0.07990000       0.17060000
C       -1.40330000      -0.64580000      -0.22320000
C       -1.57730000      -2.17890000      -0.30860000
C       -2.71320000      -1.96130000       0.71080000
C       -2.61920000      -2.72720000       2.03450000
C       -3.64570000      -2.32550000       2.99390000
N       -4.46700000      -2.01310000       3.74390000
O       -2.37810000      -0.57110000       0.85550000
H        0.86000000       1.79390000       0.80950000
H       -0.43160000       1.99540000      -0.38260000
H       -0.83370000       1.60360000       1.29570000
H        0.64980000      -0.26670000      -0.65320000
H        0.32230000      -0.63530000       1.03970000
H       -1.78900000      -0.12110000      -1.10910000
H       -1.86510000      -2.59120000      -1.27600000
H       -0.72600000      -2.74030000       0.08610000
H       -3.71980000      -2.08350000       0.28960000
H       -2.72200000      -3.80140000       1.83780000
H       -1.63130000      -2.56410000       2.47830000
