18
Properties=species:S:1:pos:R:3 gdb_39900=T pbc="F F F"
C        0.00200000       1.47460000      -0.02010000
N        1.23850000       0.65300000       0.05860000
C       -0.06100000       0.00650000       0.00730000
C       -0.55770000      -0.92870000       1.09840000
C       -2.03460000      -1.03080000       0.70020000
O       -1.97790000      -1.03130000      -0.74980000
C       -0.58990000      -0.91130000      -1.08680000
C        0.10250000      -2.22140000      -0.68740000
O        0.06870000      -2.17520000       0.75670000
H       -0.21140000       2.05320000       0.87470000
H       -0.23290000       1.98060000      -0.95310000
H        1.69250000       0.62000000      -0.85240000
H       -0.33780000      -0.68280000       2.13550000
H       -2.48630000      -1.96290000       1.05390000
H       -2.63310000      -0.17820000       1.04590000
H       -0.49170000      -0.60150000      -2.12740000
H       -0.45080000      -3.09440000      -1.04850000
H        1.14310000      -2.27900000      -1.03390000
