12
Properties=species:S:1:pos:R:3 gdb_3762=T pbc="F F F"
C        0.08120000       1.41240000      -0.05120000
N        0.08220000      -0.02880000      -0.00980000
N        0.18450000      -0.78160000      -1.15860000
C        0.15300000      -2.00920000      -0.74490000
N        0.03540000      -2.08990000       0.61740000
C       -0.01430000      -0.79030000       1.13850000
O       -0.11560000      -0.43690000       2.29510000
H        1.01180000       1.78880000      -0.48600000
H       -0.76320000       1.78320000      -0.63960000
H       -0.00910000       1.75880000       0.97960000
H        0.21230000      -2.86830000      -1.39410000
H       -0.01160000      -2.91430000       1.18980000
