14
Properties=species:S:1:pos:R:3 gdb_5730=T pbc="F F F"
N        0.08900000       1.35100000       0.12640000
C        0.04930000       0.08790000       0.07240000
O        1.12360000      -0.78470000      -0.11920000
C        0.69220000      -2.10450000       0.08280000
C       -0.63130000      -2.07170000       0.24280000
C       -1.96300000      -2.52210000       0.81490000
C       -2.28490000      -0.98130000       0.92100000
N       -1.04910000      -0.74450000       0.14280000
H        1.04590000       1.68400000       0.03800000
H        1.45420000      -2.86240000       0.08580000
H       -2.60870000      -3.05970000       0.11750000
H       -1.91540000      -3.06490000       1.75930000
H       -3.19330000      -0.62870000       0.42990000
H       -2.23080000      -0.58670000       1.93960000
