15
Properties=species:S:1:pos:R:3 gdb_15040=T pbc="F F F"
O        0.01100000      -0.05890000      -0.26690000
C       -0.00050000       1.14180000      -0.15230000
N        1.14750000       1.90890000       0.07840000
C        1.02350000       3.28850000       0.19530000
O       -0.01460000       3.89870000       0.11400000
C        2.41790000       1.21520000       0.18420000
C        3.69980000       1.78560000      -0.35430000
C        3.49640000       1.64110000       1.14020000
H       -0.89840000       1.77000000      -0.21340000
H        1.99130000       3.78630000       0.37620000
H        2.24290000       0.15540000       0.05790000
H        4.37760000       1.10750000      -0.86030000
H        3.68550000       2.78770000      -0.76880000
H        3.34730000       2.54730000       1.71710000
H        4.03320000       0.86270000       1.67050000
