13
Properties=species:S:1:pos:R:3 gdb_33329=T pbc="F F F"
C       -0.14740000      -3.82200000      -0.01210000
C       -0.09120000      -2.61580000      -0.00320000
C       -0.03050000      -1.25810000       0.00530000
C        0.03090000      -0.04930000       0.01710000
C        0.05540000       1.38210000      -0.00010000
O        0.52370000       2.06290000       1.17030000
C        1.33120000       2.15830000      -0.00640000
C        2.61690000       1.52070000       0.00150000
C        3.70710000       1.01630000      -0.01760000
H       -0.19490000      -4.88280000      -0.01870000
H       -0.80420000       1.85680000      -0.47410000
H        1.29800000       3.13580000      -0.48760000
H        4.66650000       0.56030000      -0.02640000
