20
Properties=species:S:1:pos:R:3 gdb_107577=T pbc="F F F"
C       -0.43710000       1.48500000      -0.13930000
C        0.17630000       0.09510000       0.07130000
C        0.84350000      -0.46120000      -1.16860000
C        0.01080000      -1.01110000      -2.31740000
C        0.90220000      -1.93200000      -1.54020000
C        2.27770000      -2.16460000      -2.12880000
O        2.85010000      -0.85880000      -2.32330000
C        2.15910000       0.08900000      -1.61140000
N        2.59760000       1.25010000      -1.37060000
H        0.33460000       2.19670000      -0.43920000
H       -1.20440000       1.46020000      -0.92070000
H       -0.90680000       1.84330000       0.78200000
H        0.91380000       0.13840000       0.88100000
H       -0.60100000      -0.61010000       0.39160000
H       -1.05620000      -1.07920000      -2.13500000
H        0.28140000      -0.75330000      -3.33660000
H        0.47370000      -2.69180000      -0.89780000
H        2.91770000      -2.73500000      -1.44430000
H        2.26630000      -2.66930000      -3.10040000
H        3.54280000       1.35850000      -1.74150000
