14
Properties=species:S:1:pos:R:3 gdb_83069=T pbc="F F F"
O       -0.01350000       1.38690000       0.22420000
C       -0.04620000       0.00780000       0.13070000
C       -0.43860000      -0.77140000       1.34400000
O       -1.14660000      -0.06060000       2.33350000
C       -2.28030000       0.38010000       1.73060000
N       -2.52590000       0.02180000       0.53510000
C       -1.38260000      -0.75810000       0.10830000
C       -1.57740000      -1.84270000      -0.80100000
C       -1.70270000      -2.75900000      -1.56950000
H       -0.46070000       1.75620000      -0.54600000
H        0.72640000      -0.45880000      -0.47890000
H        0.12340000      -1.61220000       1.72760000
H       -2.90850000       1.00820000       2.34890000
H       -1.82940000      -3.56760000      -2.24610000
