23
Properties=species:S:1:pos:R:3 gdb_101749=T pbc="F F F"
O        0.06580000       1.44190000      -0.14080000
C        0.07410000       0.05030000       0.08890000
C       -1.34710000      -0.51910000       0.05700000
O       -1.98630000      -0.08190000      -1.15210000
C       -1.39420000      -2.03630000       0.23380000
C       -2.80050000      -2.62490000       0.25410000
C       -3.61600000      -2.75790000      -1.06440000
C       -4.15370000      -4.11950000      -0.54950000
C       -2.96760000      -4.15840000       0.45190000
H       -0.59590000       1.57740000      -0.83240000
H        0.68950000      -0.47980000      -0.66260000
H        0.53510000      -0.12230000       1.06790000
H       -1.92670000      -0.03500000       0.85270000
H       -1.62550000      -0.60410000      -1.87850000
H       -0.80660000      -2.51390000      -0.56600000
H       -0.88190000      -2.28590000       1.17350000
H       -3.40400000      -2.09370000       1.00040000
H       -4.33120000      -1.96940000      -1.30450000
H       -2.95230000      -2.89700000      -1.92570000
H       -5.11270000      -4.00730000      -0.03550000
H       -4.24050000      -4.93870000      -1.26690000
H       -2.11280000      -4.70480000       0.03840000
H       -3.15530000      -4.52600000       1.46410000
