18
Properties=species:S:1:pos:R:3 gdb_54612=T pbc="F F F"
C        0.06900000       1.51030000       0.02680000
C       -0.02560000       0.02380000      -0.05850000
C       -1.10150000      -0.77700000      -0.04980000
C       -0.65240000      -2.21710000      -0.16720000
O        0.76550000      -2.17490000      -0.24110000
C        1.21020000      -0.82750000      -0.17450000
C       -2.52220000      -0.35450000       0.04610000
N       -3.42450000      -1.38830000       0.10920000
O       -2.89500000       0.80810000       0.04120000
H        0.68950000       1.80390000       0.88320000
H        0.56630000       1.90990000      -0.86630000
H       -0.91810000       1.95900000       0.11750000
H       -0.95480000      -2.82710000       0.70230000
H       -1.05850000      -2.70960000      -1.06520000
H        1.79380000      -0.57510000      -1.07500000
H        1.88110000      -0.68950000       0.68950000
H       -3.14330000      -2.32780000       0.33190000
H       -4.38290000      -1.13390000       0.28880000
