20
Properties=species:S:1:pos:R:3 gdb_75753=T pbc="F F F"
C       -0.08720000       1.56610000      -0.05570000
C        0.01580000       0.03900000       0.07300000
C        0.78090000      -0.56360000      -1.11940000
O        0.57780000      -0.39290000      -2.30120000
N        1.77570000      -1.33590000      -0.56280000
C        1.77330000      -1.26860000       0.85080000
C        2.80930000      -2.04280000       1.59450000
C        0.77190000      -0.48280000       1.27970000
C        0.38310000      -0.15610000       2.68490000
H        0.90090000       2.03160000       0.01530000
H       -0.51710000       1.82250000      -1.02750000
H       -0.72050000       1.98740000       0.73020000
H       -1.00160000      -0.37860000       0.04700000
H        2.46420000      -1.81660000      -1.11850000
H        3.82060000      -1.72340000       1.31270000
H        2.70360000      -1.91170000       2.67230000
H        2.73630000      -3.11500000       1.37390000
H        1.03510000      -0.64190000       3.41550000
H        0.42270000       0.92390000       2.87630000
H       -0.64640000      -0.47240000       2.90050000
