22
Properties=species:S:1:pos:R:3 gdb_62678=T pbc="F F F"
C       -0.13660000       1.61230000      -0.00100000
C        0.08400000       0.10330000       0.03390000
C       -1.07600000      -0.59470000      -0.68130000
C        1.37690000      -0.67570000      -0.19180000
C        2.66290000      -0.17700000       0.51270000
N        2.42210000       1.11540000       1.19890000
C        1.97590000      -0.16190000       1.81690000
C        0.66050000      -0.71920000       1.17130000
C       -0.01610000      -1.85040000       1.89770000
H       -0.07670000       1.97060000      -1.03620000
H       -1.14990000       1.83350000       0.35780000
H        0.58310000       2.16080000       0.59470000
H       -1.19410000      -0.17050000      -1.68440000
H       -0.92620000      -1.67140000      -0.79430000
H       -2.01830000      -0.43810000      -0.14400000
H        1.41830000      -1.45730000      -0.94240000
H        3.66580000      -0.49310000       0.25500000
H        3.29640000       1.36290000       1.66400000
H        2.32780000      -0.45680000       2.79810000
H       -0.49200000      -1.48790000       2.81840000
H       -0.78850000      -2.33510000       1.29740000
H        0.70940000      -2.62010000       2.18960000
