19
Properties=species:S:1:pos:R:3 gdb_61246=T pbc="F F F"
C        0.34150000       1.64070000      -0.33260000
C        0.14040000       0.17440000      -0.03740000
N        1.34270000      -0.67450000       0.06170000
C        0.49320000      -0.48670000       1.24800000
C        1.12230000       0.22630000       2.42850000
O        0.14530000       0.69730000       3.33690000
C        2.15700000      -0.70110000       3.10880000
C        2.82800000      -0.07020000       4.24120000
N        3.36510000       0.42890000       5.13400000
H        1.25730000       2.01990000       0.12510000
H        0.42230000       1.80100000      -1.41270000
H       -0.50350000       2.23070000       0.03670000
H       -0.71650000      -0.26520000      -0.54730000
H        1.18450000      -1.58590000      -0.35810000
H       -0.14240000      -1.32410000       1.54660000
H        1.64790000       1.11880000       2.08220000
H       -0.36710000      -0.05440000       3.65580000
H        1.66310000      -1.61760000       3.45780000
H        2.90220000      -1.00060000       2.36420000
