25
Properties=species:S:1:pos:R:3 gdb_99766=T pbc="F F F"
C       -0.16100000       1.63490000      -0.29390000
C       -0.16360000       0.10220000      -0.31990000
C       -1.50560000      -0.56580000       0.05520000
C       -2.63960000      -0.20340000      -0.92900000
C       -2.54120000      -0.79840000      -2.33560000
O       -3.87130000      -0.57190000      -0.29860000
C       -1.26860000      -2.06760000       0.33010000
C       -2.46960000      -2.86220000       0.84470000
O       -0.73400000      -2.65580000      -0.86020000
H        0.85330000       2.01880000      -0.44360000
H       -0.78830000       2.06970000      -1.07780000
H       -0.52100000       2.01750000       0.66810000
H        0.16400000      -0.25880000      -1.30010000
H        0.59160000      -0.25660000       0.39040000
H       -1.82740000      -0.14320000       1.01750000
H       -2.62160000       0.89290000      -1.02930000
H       -2.54710000      -1.88790000      -2.30880000
H       -3.38340000      -0.44600000      -2.94470000
H       -1.62200000      -0.48070000      -2.83670000
H       -4.58410000      -0.36540000      -0.91150000
H       -0.49360000      -2.09760000       1.11650000
H       -3.27020000      -2.90230000       0.10680000
H       -2.15530000      -3.88460000       1.09180000
H       -2.87620000      -2.41020000       1.75420000
H       -0.59540000      -3.59190000      -0.68620000
