20
Properties=species:S:1:pos:R:3 gdb_115780=T pbc="F F F"
O        0.00990000       1.19880000      -0.10840000
C        0.04180000      -0.21040000      -0.28950000
C       -1.32870000      -0.74260000       0.10150000
C       -2.45490000      -0.36780000      -0.90680000
C       -2.30980000      -1.77400000      -1.55660000
C       -1.56330000      -2.23050000      -0.28850000
O       -0.41750000      -3.03840000      -0.51760000
C       -0.12200000      -3.99750000       0.38040000
N        0.95410000      -4.64930000       0.28160000
H        0.86560000       1.55170000      -0.36850000
H        0.27060000      -0.47390000      -1.33340000
H        0.81440000      -0.68040000       0.33670000
H       -1.51680000      -0.48980000       1.14870000
H       -3.42270000      -0.22930000      -0.41940000
H       -2.25470000       0.49900000      -1.53770000
H       -3.21590000      -2.31900000      -1.82900000
H       -1.63360000      -1.76520000      -2.41460000
H       -2.23100000      -2.72900000       0.42440000
H       -0.89960000      -4.13140000       1.14630000
H        1.00520000      -5.34610000       1.02170000
