16
Properties=species:S:1:pos:R:3 gdb_69763=T pbc="F F F"
O       -0.08220000       1.45070000       0.07080000
C        0.00040000       0.07780000       0.02470000
C       -0.25380000      -0.73900000      -1.21190000
C       -1.11950000      -0.94560000       0.02010000
N       -0.49420000      -1.73510000       1.11040000
C        0.39180000      -2.87830000       0.71080000
C        1.61260000      -1.92790000       0.73920000
O        2.78650000      -2.04600000       0.55620000
C        0.66710000      -0.77080000       1.13230000
H        0.59420000       1.81890000      -0.50850000
H       -0.76810000      -0.18300000      -1.99000000
H        0.44690000      -1.48020000      -1.58440000
H       -2.19540000      -0.82130000      -0.01220000
H        0.43060000      -3.65450000       1.48200000
H        0.17080000      -3.34970000      -0.25160000
H        0.86280000      -0.23530000       2.06470000
