19
Properties=species:S:1:pos:R:3 gdb_39371=T pbc="F F F"
C        0.04540000       1.42870000      -0.03160000
C        1.40480000       2.15060000       0.06740000
C        2.31980000       1.66730000       1.20820000
O        2.79400000       0.35240000       0.91230000
C        1.89580000      -0.57190000       1.52760000
C        1.36860000       0.20240000       2.72650000
C        1.60450000       1.49520000       2.53220000
C        0.76260000      -0.95690000       0.59110000
C        0.01310000      -0.08410000      -0.08750000
H       -0.57080000       1.73630000       0.82740000
H       -0.47430000       1.81710000      -0.91440000
H        1.96690000       2.02210000      -0.86430000
H        1.21430000       3.22580000       0.18180000
H        3.19470000       2.32580000       1.27390000
H        2.47500000      -1.45960000       1.80380000
H        0.82300000      -0.25820000       3.53950000
H        1.29900000       2.32080000       3.16240000
H        0.56100000      -2.01990000       0.48090000
H       -0.76920000      -0.49300000      -0.72450000
