15
Properties=species:S:1:pos:R:3 gdb_62754=T pbc="F F F"
C        0.04500000       1.56430000      -0.06940000
C        0.10890000       0.06060000       0.00680000
O       -1.02520000      -0.56920000      -0.50750000
C        1.36080000      -0.74330000      -0.17870000
O        2.48990000      -0.02870000       0.38670000
C        1.96220000      -0.12480000       1.67640000
O        2.48110000       0.18040000       2.69790000
C        0.68260000      -0.75610000       1.19150000
O       -0.17280000      -1.60290000       1.84840000
H        0.99340000       2.02190000       0.21680000
H       -0.18610000       1.85800000      -1.09780000
H       -0.74880000       1.94440000       0.57980000
H       -1.37270000      -1.15900000       0.17570000
H        1.55320000      -1.51390000      -0.91160000
H        0.28580000      -2.41990000       2.07680000
