15
Properties=species:S:1:pos:R:3 gdb_28170=T pbc="F F F"
C       -0.01980000       1.46480000       0.02880000
C       -0.00300000      -0.02530000      -0.02980000
N       -0.05020000      -0.75390000      -1.12160000
C       -0.00840000      -2.05500000      -0.66950000
C        0.06440000      -2.09230000       0.70360000
N        0.10150000      -3.40810000       1.07020000
C        0.04700000      -4.10400000      -0.14060000
N       -0.01890000      -3.32680000      -1.19480000
N        0.06940000      -0.79620000       1.14090000
H        0.88880000       1.86860000       0.49150000
H       -0.08590000       1.84720000      -0.99030000
H       -0.87740000       1.84440000       0.59730000
H        0.15540000      -3.81500000       1.98720000
H        0.06120000      -5.18340000      -0.14930000
H        0.11430000      -0.44100000       2.07980000
