17
Properties=species:S:1:pos:R:3 gdb_31858=T pbc="F F F"
C       -0.04250000       1.40310000       0.00270000
O       -0.00210000      -0.01920000       0.01490000
C        0.64140000      -0.60110000       1.05490000
N        1.18930000       0.14860000       1.99580000
C        1.81370000      -0.46390000       3.00960000
C        1.92900000      -1.84660000       3.13480000
N        2.65560000      -2.43780000       4.17980000
C        1.33800000      -2.62090000       2.12250000
C        0.68650000      -2.00270000       1.07450000
H        0.96500000       1.82960000      -0.02750000
H       -0.59330000       1.67340000      -0.89990000
H       -0.55300000       1.79460000       0.88820000
H        2.25060000       0.18720000       3.76550000
H        2.74950000      -1.84410000       4.99290000
H        2.31060000      -3.34790000       4.45280000
H        1.39850000      -3.70470000       2.16560000
H        0.21710000      -2.56790000       0.27880000
