20
Properties=species:S:1:pos:R:3 gdb_122581=T pbc="F F F"
O       -0.06390000       1.42960000       0.08020000
C       -0.00020000       0.01340000       0.14080000
C       -1.41630000      -0.52520000      -0.01370000
C       -1.47430000      -2.05440000       0.01900000
C       -2.88410000      -2.61650000      -0.11570000
C       -2.98140000      -4.16380000      -0.01140000
N       -3.79050000      -4.42520000       1.19230000
C       -4.11160000      -3.28470000       1.63910000
O       -3.70260000      -2.16180000       1.00420000
H        0.82600000       1.77660000       0.19120000
H        0.64280000      -0.39160000      -0.65890000
H        0.42410000      -0.32720000       1.09990000
H       -2.04080000      -0.11370000       0.78560000
H       -1.82800000      -0.15250000      -0.95990000
H       -0.87080000      -2.47370000      -0.79780000
H       -1.04010000      -2.43390000       0.95380000
H       -3.36040000      -2.23030000      -1.02310000
H       -3.46160000      -4.61570000      -0.88530000
H       -1.99450000      -4.62870000       0.09550000
H       -4.71320000      -3.10330000       2.52330000
