19
Properties=species:S:1:pos:R:3 gdb_120127=T pbc="F F F"
O       -0.13430000       1.36810000      -0.07240000
C       -0.18150000      -0.02620000      -0.32840000
C       -1.45750000      -0.56770000       0.30880000
C       -1.57710000      -2.07220000       0.16470000
C       -2.84100000      -2.85930000       0.13370000
C       -3.96780000      -2.10120000      -0.58480000
C       -3.05570000      -2.08480000      -1.84170000
O       -3.25110000      -1.78820000      -2.98640000
C       -1.93980000      -2.79630000      -1.13560000
H        0.62430000       1.73470000      -0.53560000
H       -0.19230000      -0.23880000      -1.40850000
H        0.69660000      -0.54060000       0.09750000
H       -1.45410000      -0.30290000       1.37320000
H       -2.30950000      -0.04850000      -0.13920000
H       -0.77330000      -2.60780000       0.66910000
H       -2.99520000      -3.72890000       0.75920000
H       -4.84450000      -2.72420000      -0.78650000
H       -4.29910000      -1.14870000      -0.16410000
H       -1.27650000      -3.53310000      -1.57240000
