18
Properties=species:S:1:pos:R:3 gdb_31167=T pbc="F F F"
N       -0.09920000       1.36210000      -0.09180000
C       -0.10740000      -0.03810000      -0.07720000
C       -1.18290000      -0.90840000       0.00340000
C       -2.61810000      -0.49170000       0.03560000
O       -2.91800000       0.54410000      -0.91720000
C       -0.63220000      -2.23410000       0.07880000
N       -1.39340000      -3.41110000       0.24570000
C        0.73490000      -2.12690000       0.03950000
N        1.04150000      -0.76810000      -0.06280000
H        0.56630000       1.74590000      -0.75410000
H       -1.02830000       1.69600000      -0.32870000
H       -3.27660000      -1.36000000      -0.11850000
H       -2.90500000      -0.05560000       1.00060000
H       -2.58520000       0.23280000      -1.76670000
H       -2.20510000      -3.43110000      -0.36120000
H       -0.84370000      -4.24150000       0.06180000
H        1.51020000      -2.87400000       0.05680000
H        1.96450000      -0.37810000       0.00430000
