17
Properties=species:S:1:pos:R:3 gdb_24415=T pbc="F F F"
C       -0.00350000       1.40720000       0.01380000
C        1.43490000       1.97120000       0.02160000
C        2.17230000       1.22630000      -1.03730000
C        1.73890000       0.07140000      -1.62610000
C        0.45170000      -0.57640000      -1.22110000
O       -0.02220000      -0.00850000      -0.00200000
N        2.62480000      -0.36510000      -2.58380000
C        3.59570000       0.52010000      -2.56940000
N        3.37550000       1.50870000      -1.64910000
H       -0.54110000       1.70780000       0.91720000
H       -0.54450000       1.80990000      -0.85800000
H        1.40350000       3.05220000      -0.16720000
H        1.88900000       1.82910000       1.01140000
H       -0.31140000      -0.47400000      -2.01190000
H        0.58210000      -1.64600000      -1.02950000
H        4.47820000       0.50300000      -3.19140000
H        3.97830000       2.29150000      -1.45860000
