16
Properties=species:S:1:pos:R:3 gdb_35663=T pbc="F F F"
C        0.39900000      -1.09940000       0.07650000
C        0.10960000       0.06710000       0.05710000
C       -0.23080000       1.49530000       0.05730000
C       -0.81910000       1.95870000       1.40310000
C        0.46790000       2.17020000       2.23950000
C        1.54400000       2.50300000       1.15170000
O        0.91550000       2.32440000      -0.11190000
C        0.33860000       3.19900000       3.26300000
N        0.24050000       4.01940000       4.07140000
H        0.65170000      -2.13140000       0.07610000
H       -0.90150000       1.71390000      -0.77890000
H       -1.34030000       2.90740000       1.25790000
H       -1.50190000       1.23910000       1.85510000
H        0.73380000       1.23200000       2.73460000
H        1.89130000       3.53720000       1.21050000
H        2.40460000       1.83250000       1.25780000
