16
Properties=species:S:1:pos:R:3 gdb_15126=T pbc="F F F"
O       -0.04210000      -0.00400000       0.25930000
C        0.04070000       1.20150000       0.19370000
C        1.26690000       1.93000000       0.00430000
C        2.27960000       2.57060000      -0.15060000
C        3.49850000       3.34590000      -0.34400000
C        3.29810000       4.84650000      -0.18950000
C        3.35170000       5.47910000       1.17540000
C        4.46730000       5.71830000       0.18660000
H       -0.85870000       1.84560000       0.27920000
H        4.25740000       2.99830000       0.37000000
H        3.90210000       3.11850000      -1.34040000
H        2.58230000       5.26700000      -0.88920000
H        2.66950000       6.29300000       1.39270000
H        3.55690000       4.83500000       2.02420000
H        5.42170000       5.23620000       0.37310000
H        4.54930000       6.69500000      -0.27650000
