20
Properties=species:S:1:pos:R:3 gdb_57213=T pbc="F F F"
C       -0.06640000       1.51410000       0.32830000
C        0.00390000       0.02270000       0.06310000
C        1.29450000      -0.57360000      -0.46660000
C        0.87040000      -0.81980000       0.96150000
C       -1.30720000      -0.60830000      -0.39200000
O       -2.28460000      -0.49370000       0.60780000
C       -1.87260000       0.02130000      -1.68350000
N       -1.04210000       0.07140000      -2.75270000
O       -3.03020000       0.40780000      -1.71420000
H        0.87870000       1.88640000       0.73430000
H       -0.28260000       2.07860000      -0.58630000
H       -0.85920000       1.72460000       1.05140000
H        1.24770000      -1.41580000      -1.15180000
H        2.12740000       0.09780000      -0.64740000
H        1.41940000      -0.31690000       1.75010000
H        0.52330000      -1.81290000       1.22500000
H       -1.11560000      -1.67270000      -0.61760000
H       -3.06230000      -0.13100000       0.14790000
H       -0.06030000      -0.12060000      -2.65270000
H       -1.36980000       0.52180000      -3.59180000
