20
Properties=species:S:1:pos:R:3 gdb_76474=T pbc="F F F"
C       -0.13760000       0.86580000      -2.02510000
C       -0.00230000      -0.26990000      -1.03320000
C        1.32460000      -0.63900000      -0.35780000
C        2.62010000       0.09860000      -0.62160000
C        0.20710000      -0.02580000       0.43090000
C        0.17360000       1.29580000       1.21890000
C       -0.60000000       0.48470000       2.29600000
O       -1.08400000       0.71120000       3.37160000
N       -0.52280000      -0.65030000       1.52340000
H        0.46220000       1.73430000      -1.73970000
H        0.18170000       0.55780000      -3.02680000
H       -1.17930000       1.19710000      -2.09650000
H       -0.62980000      -1.12880000      -1.26420000
H        1.45450000      -1.70860000      -0.20330000
H        2.46670000       1.17680000      -0.71830000
H        3.33020000      -0.05840000       0.19770000
H        3.09560000      -0.25210000      -1.54420000
H        1.14010000       1.67420000       1.55680000
H       -0.40630000       2.10420000       0.76990000
H       -0.85930000      -1.59010000       1.67190000
