21
Properties=species:S:1:pos:R:3 gdb_78487=T pbc="F F F"
O        0.30200000       1.23880000      -0.17480000
C        0.11880000      -0.14640000      -0.05470000
C       -0.38770000      -0.66150000       1.26130000
C       -1.29400000      -0.65090000       0.00140000
C       -1.40920000      -2.18530000       0.06150000
C       -0.73380000      -3.07680000      -0.99700000
C        0.72800000      -3.28590000      -0.51920000
C        0.71780000      -3.09370000       1.02090000
C       -0.49350000      -2.19600000       1.33460000
H       -0.38990000       1.68360000       0.32670000
H        0.89840000      -0.64290000      -0.61960000
H       -0.40010000      -0.00070000       2.12270000
H       -2.10930000       0.01920000      -0.25330000
H       -2.43920000      -2.48930000       0.25980000
H       -1.25130000      -4.04220000      -1.03580000
H       -0.78200000      -2.65030000      -2.00370000
H        1.10730000      -4.27310000      -0.80030000
H        1.39610000      -2.56160000      -0.99370000
H        0.58230000      -4.06350000       1.51320000
H        1.66030000      -2.67870000       1.39140000
H       -1.01140000      -2.50600000       2.24470000
