19
Properties=species:S:1:pos:R:3 gdb_106148=T pbc="F F F"
C        0.14790000       1.45500000      -0.25900000
C       -0.09590000      -0.02500000       0.06560000
C        0.62400000      -0.49300000       1.28990000
C        2.05930000      -0.73680000       1.65230000
O        2.05380000       0.05280000       2.84010000
C        0.60410000      -0.10310000       2.82550000
C        0.37860000      -1.59360000       3.19130000
C        1.01250000      -1.86360000       1.82550000
O        1.02440000      -3.02810000       1.08850000
H        1.21250000       1.65100000      -0.41980000
H       -0.39390000       1.75180000      -1.16220000
H       -0.18750000       2.09940000       0.56010000
H       -1.17290000      -0.20610000       0.18190000
H        0.22290000      -0.65170000      -0.77640000
H        2.96170000      -0.81850000       1.05880000
H        0.06920000       0.71150000       3.30910000
H        0.87010000      -1.95070000       4.10240000
H       -0.68270000      -1.85570000       3.19090000
H        1.76940000      -3.56690000       1.37790000
