12
Properties=species:S:1:pos:R:3 gdb_8727=T pbc="F F F"
O        0.04450000       1.49160000      -0.09850000
C        0.02190000       0.09370000      -0.05010000
C        0.67970000      -0.53420000      -1.20250000
C        1.23060000      -1.04260000      -2.14120000
C        0.71860000      -0.38940000       1.24550000
O        1.28140000       0.41890000       1.95170000
C        0.64540000      -1.79490000       1.54670000
C        0.54290000      -2.96760000       1.79590000
H        0.66590000       1.76380000       0.59740000
H       -1.02160000      -0.25530000      -0.00550000
H        1.71110000      -1.48670000      -2.97810000
H        0.46330000      -4.00380000       2.02130000
