19
Properties=species:S:1:pos:R:3 gdb_110809=T pbc="F F F"
C        0.17180000       1.00280000      -0.30920000
O       -0.44010000      -0.00440000       0.47580000
C        0.44140000      -0.63060000       1.34660000
C        0.11490000      -1.97410000       1.88770000
C       -0.57910000      -2.82130000       0.81400000
C        0.70290000      -2.70260000      -0.09060000
C        0.58350000      -2.25930000      -1.46890000
C        0.49880000      -1.93040000      -2.62320000
C        1.34280000      -1.77310000       0.96030000
H        0.94970000       0.58670000      -0.96120000
H       -0.61290000       1.44580000      -0.92650000
H        0.61390000       1.78830000       0.32260000
H        0.90570000       0.04720000       2.06770000
H        0.08520000      -2.17640000       2.95150000
H       -0.76890000      -3.85110000       1.11950000
H       -1.48860000      -2.38640000       0.39800000
H        1.22680000      -3.66370000      -0.07780000
H        0.41430000      -1.63130000      -3.63840000
H        2.40010000      -1.77350000       1.20030000
