15
Properties=species:S:1:pos:R:3 gdb_31876=T pbc="F F F"
O        0.42770000       0.76880000       0.84010000
C       -0.01890000       0.12250000      -0.32150000
C       -1.42820000      -0.41400000      -0.18700000
N       -2.03750000      -0.20600000       0.98140000
C       -3.27790000      -0.66790000       1.12560000
C       -3.92340000      -1.34640000       0.09470000
O       -5.18700000      -1.79850000       0.28780000
C       -3.19740000      -1.51080000      -1.08700000
N       -1.95960000      -1.05090000      -1.23340000
H       -0.30630000       0.71200000       1.47000000
H        0.00550000       0.80770000      -1.18320000
H        0.64400000      -0.71800000      -0.57970000
H       -3.78130000      -0.50250000       2.07460000
H       -5.49730000      -2.24460000      -0.50820000
H       -3.63770000      -2.03240000      -1.93820000
