9
Properties=species:S:1:pos:R:3 gdb_783=T pbc="F F F"
O        0.11920000       1.30950000       0.17010000
C        0.07510000      -0.01630000       0.01260000
N        0.11070000      -0.69230000      -1.11340000
C        0.03460000      -1.98530000      -0.66960000
N       -0.04410000      -2.13980000       0.63610000
N       -0.01650000      -0.84150000       1.07030000
H        0.18350000       1.69280000      -0.71410000
H        0.03810000      -2.83170000      -1.33990000
H       -0.06210000      -0.62070000       2.05030000
