18
Properties=species:S:1:pos:R:3 gdb_119847=T pbc="F F F"
C        0.04740000       1.49220000      -0.07930000
C       -0.03560000      -0.02100000      -0.03860000
O        0.67260000      -0.52800000      -1.18640000
C        0.73770000      -1.85350000      -1.29470000
N        0.22120000      -2.69850000      -0.48910000
C        0.59030000      -4.04970000      -0.94390000
C        1.36170000      -3.88020000      -2.24920000
O        0.58960000      -3.23860000      -3.26910000
C        1.47200000      -2.43120000      -2.46850000
H        1.08770000       1.82770000      -0.04130000
H       -0.40740000       1.88350000      -0.99360000
H       -0.48320000       1.91560000       0.77850000
H        0.41850000      -0.43780000       0.86670000
H       -1.06930000      -0.37990000      -0.07820000
H        1.20720000      -4.53990000      -0.18050000
H       -0.30880000      -4.66090000      -1.08080000
H        2.09840000      -4.60030000      -2.59390000
H        2.26760000      -1.90990000      -2.98970000
