20
Properties=species:S:1:pos:R:3 gdb_57677=T pbc="F F F"
C        0.08410000       1.64610000       0.07030000
C        0.04950000       0.10680000       0.08040000
C        0.77680000      -0.44570000       1.32100000
C       -1.41460000      -0.39670000       0.01130000
C       -2.29970000       0.06650000       1.15010000
O       -3.33100000       0.66860000       0.99820000
N        0.69920000      -0.41780000      -1.13940000
C        1.99010000      -0.20750000      -1.50520000
O        2.81830000       0.42300000      -0.87920000
H        1.11710000       1.99510000       0.04100000
H       -0.44520000       2.03890000      -0.80310000
H       -0.39720000       2.04770000       0.96770000
H        0.34880000      -0.03870000       2.24150000
H        0.70750000      -1.53750000       1.35910000
H        1.83020000      -0.16580000       1.28010000
H       -1.88530000      -0.06860000      -0.92140000
H       -1.40840000      -1.49680000       0.03120000
H       -1.94630000      -0.20750000       2.16830000
H        0.12870000      -0.94420000      -1.78250000
H        2.21840000      -0.69620000      -2.47470000
