24
Properties=species:S:1:pos:R:3 gdb_57329=T pbc="F F F"
C       -0.04990000       1.54680000       0.05180000
C       -0.01030000       0.00450000       0.03970000
C        0.69740000      -0.47850000       1.32050000
C       -1.46350000      -0.51380000       0.05570000
C        0.74640000      -0.51730000      -1.25720000
C        2.20190000       0.00460000      -1.35910000
C        0.77980000      -2.06320000      -1.35710000
C        0.02460000      -0.02230000      -2.44520000
N       -0.53080000       0.35840000      -3.38550000
H        0.94610000       1.98550000       0.15710000
H       -0.50490000       1.94540000      -0.85960000
H       -0.64710000       1.89270000       0.90130000
H        0.15400000      -0.10570000       2.19480000
H        0.72180000      -1.56910000       1.39770000
H        1.72290000      -0.10600000       1.39600000
H       -2.00010000      -0.23720000      -0.85650000
H       -1.51390000      -1.60050000       0.16630000
H       -2.00040000      -0.07720000       0.90360000
H        2.80130000      -0.37240000      -0.52700000
H        2.65820000      -0.34910000      -2.28750000
H        2.24990000       1.09450000      -1.35990000
H       -0.22080000      -2.49790000      -1.35780000
H        1.27380000      -2.36400000      -2.28480000
H        1.34590000      -2.48710000      -0.52420000
