21
Properties=species:S:1:pos:R:3 gdb_91781=T pbc="F F F"
C        0.68430000       1.53610000       0.00080000
C        0.05510000       0.13820000      -0.08600000
C        0.48210000      -0.73170000      -1.29730000
C        1.24340000      -1.92980000      -0.72790000
C        2.45120000      -1.61740000       0.09660000
C        1.12730000      -1.93990000       0.78800000
C        0.99620000      -3.16070000       1.66290000
C        0.35530000      -0.71170000       1.16590000
O       -0.02900000      -0.44570000       2.28010000
H        1.77790000       1.49320000      -0.03570000
H        0.34990000       2.16500000      -0.83000000
H        0.39500000       2.01920000       0.93820000
H       -1.03290000       0.26840000      -0.08780000
H       -0.39860000      -1.08030000      -1.84510000
H        1.09660000      -0.16880000      -2.00870000
H        1.22140000      -2.86580000      -1.27550000
H        3.21470000      -2.38220000       0.19370000
H        2.83780000      -0.60360000       0.11640000
H        1.63210000      -3.97530000       1.30400000
H        1.28590000      -2.92280000       2.69090000
H       -0.03740000      -3.52140000       1.68850000
