18
Properties=species:S:1:pos:R:3 gdb_31448=T pbc="F F F"
C        0.10590000       1.50440000      -0.29610000
C       -0.00340000       0.02430000       0.11400000
C       -1.40860000      -0.48670000       0.17210000
C       -2.20340000      -0.82950000       1.23860000
C       -3.48170000      -1.23780000       0.73180000
C       -3.41460000      -1.12560000      -0.64590000
N       -2.16560000      -0.67300000      -0.96690000
C       -4.59680000      -1.67450000       1.48370000
C       -5.53860000      -2.04470000       2.13830000
H        1.15160000       1.82660000      -0.31780000
H       -0.31650000       1.67680000      -1.29180000
H       -0.43700000       2.14240000       0.40730000
H        0.59160000      -0.58770000      -0.57800000
H        0.44520000      -0.11440000       1.10250000
H       -1.91780000      -0.79980000       2.27850000
H       -4.15440000      -1.33740000      -1.39990000
H       -1.84000000      -0.51010000      -1.90410000
H       -6.37000000      -2.37110000       2.71130000
