17
Properties=species:S:1:pos:R:3 gdb_83916=T pbc="F F F"
O        0.11360000       1.37870000      -0.08310000
C        0.00950000      -0.00180000       0.01830000
C       -0.42750000      -0.71880000       1.26280000
C       -1.17810000       0.11650000       2.27980000
O       -2.09230000       0.91440000       1.51660000
C       -2.52400000       0.14040000       0.39460000
C       -1.33250000      -0.73660000       0.01350000
C       -1.54770000      -1.89240000      -0.79520000
C       -1.73440000      -2.85770000      -1.48970000
H       -0.59220000       1.76530000       0.45520000
H        0.79060000      -0.48040000      -0.56190000
H        0.08540000      -1.61530000       1.59020000
H       -1.71450000      -0.52680000       2.99240000
H       -0.54550000       0.81030000       2.84250000
H       -3.38770000      -0.48910000       0.65020000
H       -2.81760000       0.84460000      -0.38900000
H       -1.89400000      -3.70870000      -2.10400000
