13
Properties=species:S:1:pos:R:3 gdb_3565=T pbc="F F F"
C       -0.07640000       1.61020000      -0.05120000
C        1.44990000       1.37330000      -0.01430000
O        1.19640000       0.20320000       0.84500000
C        0.00100000       0.06780000      -0.00610000
C        0.66290000      -0.30990000      -1.35840000
O        0.68860000       0.74680000      -2.33150000
C        1.74830000       0.66810000      -1.36460000
H       -0.42950000       2.00810000       0.89900000
H       -0.52570000       2.10350000      -0.91030000
H        2.17720000       2.07390000       0.39240000
H       -0.76880000      -0.58050000       0.40920000
H        0.71880000      -1.32570000      -1.73170000
H        2.75050000       0.50490000      -1.74330000
