18
Properties=species:S:1:pos:R:3 gdb_94032=T pbc="F F F"
C       -0.51700000       1.31400000      -0.09370000
C        0.00530000      -0.08870000      -0.39800000
C        1.49980000      -0.12720000      -0.82700000
O        2.11240000      -1.05090000       0.09950000
C        1.13050000      -1.40220000       0.96960000
C        1.55350000      -2.34430000       2.06400000
C        2.61210000      -1.80460000       2.91200000
C        3.47570000      -1.36460000       3.62060000
N       -0.04230000      -0.95080000       0.79900000
H        0.09010000       1.78970000       0.68350000
H       -0.48700000       1.94350000      -0.98950000
H       -1.54940000       1.26710000       0.26190000
H       -0.63060000      -0.54210000      -1.16840000
H        1.66160000      -0.50130000      -1.84090000
H        1.99640000       0.84340000      -0.72150000
H        0.66350000      -2.57640000       2.65480000
H        1.89610000      -3.27950000       1.60160000
H        4.24210000      -0.97480000       4.24360000
