18
Properties=species:S:1:pos:R:3 gdb_81054=T pbc="F F F"
C       -0.03510000       1.60750000       0.06720000
C        0.05270000       0.10450000       0.07160000
N        1.17640000      -0.64630000      -0.73490000
H        1.35070000      -0.63980000      -1.74590000
C        2.15040000      -0.23660000       0.37170000
C        0.86700000      -0.68080000       1.14860000
C        0.85230000      -1.86930000       0.13770000
C        0.60240000      -0.66030000       2.67950000
O        0.04570000       0.39610000       3.03330000
O        0.99400000      -1.67490000       3.26660000
H        0.92930000       2.11780000       0.06090000
H       -0.63680000       1.97910000      -0.76650000
H       -0.51870000       1.85040000       1.02040000
H       -0.91120000      -0.34870000      -0.17340000
H        3.02210000      -0.88930000       0.42180000
H        2.42150000       0.81550000       0.34920000
H       -0.10590000      -2.32570000      -0.11270000
H        1.67080000      -2.58680000       0.17580000
