17
Properties=species:S:1:pos:R:3 gdb_88051=T pbc="F F F"
O        0.12400000       1.31090000       0.00140000
C        0.06700000      -0.07130000       0.15730000
C       -0.71950000      -0.64730000       1.32980000
C       -1.27050000      -0.68770000      -0.07170000
N       -2.44450000       0.01370000      -0.58070000
C       -2.98150000      -1.23360000      -1.17340000
C       -1.62680000      -1.95730000      -0.87430000
C       -0.78150000      -2.24950000      -2.02080000
N       -0.09940000      -2.48870000      -2.92310000
H        0.77930000       1.65360000       0.61840000
H        0.94040000      -0.62660000      -0.18700000
H       -0.38100000      -1.56740000       1.79740000
H       -1.16440000       0.07740000       2.00570000
H       -3.03020000       0.44910000       0.12200000
H       -3.81560000      -1.69210000      -0.63030000
H       -3.24640000      -1.14130000      -2.22960000
H       -1.72750000      -2.85860000      -0.26590000
