17
Properties=species:S:1:pos:R:3 gdb_34668=T pbc="F F F"
N       -0.00360000      -1.16260000      -0.32910000
C       -0.02410000      -0.02210000      -0.14290000
C       -0.03580000       1.41220000       0.09550000
N       -1.14550000       2.00960000       0.04550000
C       -1.30380000       3.45340000       0.11420000
C       -0.60790000       4.19430000       1.26260000
C        0.91840000       4.17100000       1.17720000
C        1.50760000       2.78050000       1.35880000
O        1.23260000       1.86510000       0.28270000
H       -0.95460000       3.86870000      -0.84370000
H       -2.37880000       3.64930000       0.16270000
H       -0.96140000       5.23150000       1.24740000
H       -0.93470000       3.76540000       2.21870000
H        1.25400000       4.58140000       0.21650000
H        1.34480000       4.80840000       1.96130000
H        2.59830000       2.82040000       1.39260000
H        1.15040000       2.33190000       2.29510000
