16
Properties=species:S:1:pos:R:3 gdb_14619=T pbc="F F F"
O        0.44390000       0.78170000      -1.52220000
C        0.20950000       1.45370000      -0.54100000
N        1.07840000       1.65830000       0.48780000
C        2.42210000       1.10830000       0.48810000
C        3.47610000       2.10660000      -0.00940000
C        4.88170000       1.47490000      -0.02390000
C        5.91290000       2.41710000      -0.45130000
N        6.71600000       3.17720000      -0.78640000
H       -0.75630000       1.96960000      -0.37400000
H        0.79910000       2.27520000       1.23380000
H        2.66780000       0.76820000       1.50100000
H        2.39910000       0.23230000      -0.16580000
H        3.21050000       2.43580000      -1.01830000
H        3.48340000       2.99660000       0.62940000
H        5.14540000       1.10480000       0.97440000
H        4.90030000       0.60820000      -0.69490000
