18
Properties=species:S:1:pos:R:3 gdb_18902=T pbc="F F F"
C        0.00740000       1.55320000      -0.03510000
C        0.02910000       0.05490000      -0.05390000
C        0.62110000      -0.88520000      -1.15490000
C       -0.44560000      -1.88300000      -0.76430000
C        0.90730000      -1.87230000      -0.04600000
C        0.60540000      -0.87360000       1.09370000
C       -0.83280000      -1.16420000       1.58730000
C       -1.23280000      -0.88810000       0.11760000
H        1.02280000       1.96600000      -0.06610000
H       -0.54060000       1.95370000      -0.89630000
H       -0.47760000       1.93100000       0.87270000
H        1.12050000      -0.70480000      -2.09820000
H       -0.80830000      -2.74170000      -1.31360000
H        1.57610000      -2.72280000      -0.04760000
H        1.41410000      -0.57390000       1.76040000
H       -1.05150000      -2.14810000       2.01380000
H       -1.19620000      -0.38040000       2.26010000
H       -2.24170000      -0.60260000      -0.18090000
