17
Properties=species:S:1:pos:R:3 gdb_43795=T pbc="F F F"
O       -0.00860000       0.31510000      -0.95340000
C       -0.00730000       1.30420000      -0.28340000
C       -1.08960000       2.10420000       0.48550000
C       -0.02160000       3.18220000       0.75560000
C       -0.15020000       4.65870000       0.51470000
C        0.10090000       4.13270000       1.90790000
C        1.06160000       2.31120000       0.14000000
C        2.44630000       2.03350000       0.55350000
O        2.15050000       2.75580000      -0.64290000
H       -1.94350000       2.40390000      -0.12870000
H       -1.45790000       1.57450000       1.37010000
H        0.67060000       5.14390000      -0.00300000
H       -1.13370000       5.05340000       0.28250000
H       -0.71380000       4.16620000       2.62380000
H        1.08300000       4.28710000       2.34390000
H        2.88180000       2.61930000       1.36160000
H        2.85710000       1.03580000       0.40840000
