19
Properties=species:S:1:pos:R:3 gdb_115671=T pbc="F F F"
C        1.19670000      -0.34410000      -0.36610000
C        0.03040000       0.42130000       0.21410000
O        0.08420000       1.58990000       0.52680000
C       -1.28390000      -0.33520000       0.37870000
O       -1.17890000      -1.76730000       0.24820000
C       -1.85540000      -1.97640000       1.50680000
C       -1.89790000      -0.45880000       1.80150000
C       -1.05890000       0.02480000       2.97880000
O       -1.67350000      -0.28270000       4.21970000
H        2.05360000       0.32030000      -0.48030000
H        1.44880000      -1.18980000       0.28140000
H        0.91870000      -0.77940000      -1.33250000
H       -1.98630000       0.08350000      -0.35730000
H       -2.83000000      -2.45840000       1.36750000
H       -1.25230000      -2.58620000       2.19400000
H       -2.90400000      -0.04580000       1.89100000
H       -0.04140000      -0.39530000       2.92040000
H       -0.95940000       1.11230000       2.94230000
H       -1.66470000      -1.23870000       4.33150000
