21
Properties=species:S:1:pos:R:3 gdb_99875=T pbc="F F F"
C       -0.05960000       1.47980000       0.09130000
N       -0.00640000       0.02390000      -0.05060000
C        0.65260000      -0.48860000      -1.25640000
C       -0.04000000       0.02660000      -2.53070000
C        2.08210000      -0.06770000      -1.28550000
N        3.16970000       0.32070000      -1.22380000
C        0.62390000      -2.04430000      -1.18460000
C       -0.78580000      -2.62990000      -1.15500000
O        1.36480000      -2.49960000      -2.30560000
H        0.91820000       1.97430000      -0.01580000
H       -0.74490000       1.90570000      -0.64620000
H       -0.45760000       1.71290000       1.08210000
H        0.46560000      -0.36470000       0.76050000
H        0.16460000       1.08640000      -2.69250000
H        0.32820000      -0.53110000      -3.39280000
H       -1.11990000      -0.11070000      -2.43970000
H        1.14450000      -2.32130000      -0.25220000
H       -0.73250000      -3.71300000      -0.99750000
H       -1.37100000      -2.19080000      -0.34450000
H       -1.30170000      -2.45260000      -2.10230000
H        1.40500000      -3.45990000      -2.27260000
