20
Properties=species:S:1:pos:R:3 gdb_100337=T pbc="F F F"
C        0.10500000       1.53590000       0.09670000
C       -0.01820000       0.01120000       0.03770000
C       -1.46740000      -0.50900000      -0.05140000
O       -2.25090000      -0.06200000       1.04600000
C       -2.20710000       0.03140000      -1.28160000
O       -1.45300000      -0.32140000      -2.43210000
C       -1.42610000      -2.06250000      -0.10380000
C       -2.74860000      -2.67790000      -0.03520000
N       -3.79310000      -3.17020000       0.01010000
H        1.13510000       1.82710000       0.32150000
H       -0.16460000       1.99470000      -0.85870000
H       -0.54560000       1.95130000       0.87110000
H        0.54630000      -0.37630000      -0.81610000
H        0.43550000      -0.42890000       0.93750000
H       -1.82470000      -0.34160000       1.86340000
H       -3.21470000      -0.40370000      -1.30230000
H       -2.31210000       1.11890000      -1.17770000
H       -1.98530000      -0.13910000      -3.21110000
H       -0.94140000      -2.37080000      -1.03530000
H       -0.81830000      -2.44530000       0.72470000
