20
Properties=species:S:1:pos:R:3 gdb_6276=T pbc="F F F"
C       -0.04710000       1.55990000      -0.06250000
C        0.02300000       0.02700000      -0.03310000
C        0.74880000      -0.50750000      -1.27530000
C        0.71050000      -0.50350000       1.23780000
C       -0.03340000      -0.18460000       2.55100000
N       -1.38540000      -0.74950000       2.53820000
C        0.76960000      -0.64220000       3.70730000
N        1.36420000      -1.02830000       4.62110000
H        0.95450000       2.00280000       0.00040000
H       -0.50350000       1.90670000      -0.99510000
H       -0.64740000       1.96310000       0.75870000
H       -1.00270000      -0.35890000      -0.03810000
H        1.78500000      -0.15000000      -1.31310000
H        0.77470000      -1.60230000      -1.28500000
H        0.25130000      -0.17610000      -2.19230000
H        0.82050000      -1.59350000       1.16770000
H        1.72680000      -0.09730000       1.31000000
H       -0.13450000       0.90210000       2.64800000
H       -1.33180000      -1.76470000       2.52060000
H       -1.87710000      -0.50240000       3.39160000
