17
Properties=species:S:1:pos:R:3 gdb_38069=T pbc="F F F"
C       -0.01990000       1.38650000      -0.31020000
C        1.44530000       1.53800000       0.13810000
C        1.26600000       0.11950000       0.73750000
O       -0.08140000       0.03570000       0.20210000
C        2.18480000      -0.99020000       0.28780000
C        2.68100000      -1.68490000       1.31550000
C        2.18440000      -1.12180000       2.60820000
O        2.58320000       0.25860000       2.82340000
C        1.29810000      -0.00480000       2.26120000
H       -0.73990000       2.04500000       0.19090000
H       -0.20240000       1.41960000      -1.39010000
H        2.17160000       1.59210000      -0.67430000
H        1.66130000       2.32160000       0.86490000
H        2.41810000      -1.14240000      -0.76000000
H        3.37550000      -2.51340000       1.25160000
H        2.09250000      -1.71780000       3.51020000
H        0.43120000       0.30030000       2.84160000
