14
Properties=species:S:1:pos:R:3 gdb_133591=T pbc="F F F"
F        0.11650000       0.09930000      -0.15010000
C        0.01790000       1.42310000       0.00050000
F        1.26400000       1.92900000      -0.01840000
F       -0.62640000       1.90200000      -1.08000000
C       -0.70030000       1.82100000       1.27090000
C       -2.01770000       1.06680000       1.66930000
C       -1.34440000       0.72390000       3.00860000
O       -0.17370000      -0.03710000       2.70540000
C       -0.08820000       1.38440000       2.61470000
H       -0.85160000       2.90210000       1.23570000
H       -2.87220000       1.73990000       1.75290000
H       -2.28150000       0.20050000       1.06070000
H       -1.79180000       0.58530000       3.98500000
H        0.67890000       1.88170000       3.19540000
