14
Properties=species:S:1:pos:R:3 gdb_31431=T pbc="F F F"
C        0.01410000       1.37740000       0.00720000
O       -0.04210000      -0.05500000       0.00380000
C       -1.24330000      -0.61430000       0.01150000
N       -2.31260000       0.13550000       0.02130000
C       -3.54480000      -0.47220000       0.02830000
O       -4.61880000       0.07830000       0.03760000
N       -3.48990000      -1.90090000       0.02360000
C       -2.32230000      -2.56780000       0.01310000
N       -1.16330000      -1.98750000       0.00650000
H        1.07640000       1.62090000      -0.00050000
H       -0.48400000       1.78480000      -0.87550000
H       -0.47000000       1.78000000       0.89970000
H       -4.37790000      -2.38210000       0.02860000
H       -2.37770000      -3.65430000       0.01020000
