19
Properties=species:S:1:pos:R:3 gdb_81621=T pbc="F F F"
C       -0.23260000       1.56460000       0.24990000
C       -0.11650000       0.05190000       0.24400000
C        1.06310000      -0.61070000      -0.52600000
O        1.99620000      -0.07840000       0.49600000
C        0.85040000      -0.63480000       1.25190000
C        0.94130000      -1.89550000       0.34570000
C       -0.18070000      -2.92300000       0.20140000
C        0.10870000      -3.88870000      -0.92970000
O       -0.63260000      -4.10800000      -1.85180000
H        0.74950000       2.02500000       0.37210000
H       -0.67370000       1.92250000      -0.68660000
H       -0.88150000       1.90060000       1.06590000
H       -1.09020000      -0.42910000       0.12140000
H        1.35550000      -0.50740000      -1.57200000
H        0.88760000      -0.56610000       2.34060000
H        1.91480000      -2.38130000       0.45790000
H       -0.22680000      -3.51250000       1.12910000
H       -1.16440000      -2.48240000       0.03100000
H        1.09660000      -4.40090000      -0.85380000
