16
Properties=species:S:1:pos:R:3 gdb_30371=T pbc="F F F"
C       -0.04130000       1.43760000       0.01830000
N       -0.05800000      -0.01170000       0.02950000
C        0.55040000      -0.61190000      -0.92480000
N        1.24790000      -0.03850000      -1.96370000
C        0.56890000      -2.08410000      -0.93660000
C        0.07470000      -2.95290000      -0.01910000
O        0.31850000      -4.21930000      -0.46440000
C        0.95700000      -4.04840000      -1.64360000
N        1.13670000      -2.81460000      -1.97990000
H        0.98140000       1.84820000       0.02100000
H       -0.55860000       1.86040000      -0.86030000
H       -0.55500000       1.81570000       0.90580000
H        1.04800000       0.91770000      -2.20290000
H        1.50110000      -0.65110000      -2.72390000
H       -0.43500000      -2.84490000       0.92060000
H        1.24670000      -4.94060000      -2.17550000
