14
Properties=species:S:1:pos:R:3 gdb_28655=T pbc="F F F"
N       -0.04070000       1.36950000       0.12030000
C        0.02220000       0.00690000       0.04700000
N       -1.15590000      -0.63800000       0.03950000
C       -1.14290000      -1.96420000       0.01290000
C        0.02530000      -2.73600000      -0.01420000
C        1.25290000      -2.04940000      -0.01130000
C        1.25850000      -0.67350000       0.02040000
C       -0.03710000      -4.15790000      -0.04720000
N       -0.08870000      -5.31520000      -0.07440000
H        0.76250000       1.91540000      -0.14050000
H       -0.94470000       1.77890000      -0.05370000
H       -2.11180000      -2.45650000       0.00870000
H        2.18290000      -2.60590000      -0.03380000
H        2.19030000      -0.11920000       0.02890000
