18
Properties=species:S:1:pos:R:3 gdb_13251=T pbc="F F F"
O       -0.24800000       0.11430000       0.09990000
C       -0.03640000       1.29670000       0.01690000
C        1.32610000       1.93050000      -0.12440000
C        1.41680000       2.82710000      -1.37170000
C        2.71290000       3.62070000      -1.40140000
C        2.81810000       4.80600000      -2.38740000
C        3.02990000       5.65620000      -1.11920000
O        2.83130000       4.51010000      -0.26320000
H       -0.87830000       2.02990000       0.03550000
H        1.49760000       2.56450000       0.75660000
H        2.08310000       1.14090000      -0.13620000
H        1.34840000       2.22020000      -2.28370000
H        0.57340000       3.52950000      -1.38500000
H        3.57140000       2.93450000      -1.44030000
H        3.65220000       4.77300000      -3.08920000
H        1.89620000       5.01670000      -2.93370000
H        4.03580000       6.07860000      -1.00380000
H        2.29210000       6.44380000      -0.92740000
