19
Properties=species:S:1:pos:R:3 gdb_77496=T pbc="F F F"
C        0.02300000       1.48980000       0.00410000
C        0.02170000      -0.01230000      -0.01870000
C        0.52880000      -0.95540000      -1.16300000
C        0.03010000      -1.89810000      -0.03150000
O        0.06920000      -3.28160000       0.04830000
C        0.73930000      -0.96390000       0.98370000
O        2.14370000      -0.88080000       0.97850000
C       -1.20780000      -0.95640000       0.08640000
O       -1.94080000      -0.89870000       1.28600000
H        1.04690000       1.87600000      -0.01660000
H       -0.51300000       1.89960000      -0.85860000
H       -0.46270000       1.86170000       0.91220000
H       -0.05280000      -0.94540000      -2.09040000
H        1.60150000      -0.94640000      -1.34170000
H       -0.24770000      -3.64760000      -0.78450000
H        0.33330000      -0.97200000       1.99820000
H        2.48540000      -1.64350000       1.45540000
H       -1.86870000      -0.94220000      -0.79210000
H       -2.32220000      -1.76910000       1.44130000
