18
Properties=species:S:1:pos:R:3 gdb_6101=T pbc="F F F"
C        0.08740000       1.39830000       0.08680000
C       -0.12690000      -0.10610000      -0.10810000
O        0.17200000      -0.82770000       1.07480000
C       -1.54790000      -0.37480000      -0.60350000
O       -1.79200000      -1.77640000      -0.83090000
C       -2.23590000      -2.49670000       0.21590000
C       -2.48000000      -3.92900000      -0.18390000
O       -2.41110000      -2.04610000       1.32550000
H        1.09630000       1.57460000       0.46710000
H       -0.03030000       1.94920000      -0.85290000
H       -0.62440000       1.80080000       0.81600000
H        0.57560000      -0.47150000      -0.86970000
H       -0.65140000      -0.97090000       1.56010000
H       -2.28230000       0.00280000       0.11480000
H       -1.71000000       0.10430000      -1.57190000
H       -1.52480000      -4.40220000      -0.43150000
H       -2.94840000      -4.46250000       0.64200000
H       -3.10890000      -3.97570000      -1.07630000
