16
Properties=species:S:1:pos:R:3 gdb_6305=T pbc="F F F"
C       -0.01720000       1.56000000       0.01450000
C        0.03940000       0.02010000      -0.00720000
N        0.67940000      -0.50420000      -1.21270000
C       -0.04060000      -0.58990000      -2.38310000
N        0.72270000      -0.93780000      -3.49160000
O       -1.23560000      -0.36280000      -2.44840000
C        0.71600000      -0.51080000       1.17710000
C        1.29290000      -0.91190000       2.15190000
H        0.99120000       1.98450000       0.00450000
H       -0.56600000       1.90870000      -0.86310000
H       -0.52780000       1.91040000       0.91580000
H       -0.98870000      -0.35510000      -0.03920000
H        1.68290000      -0.42130000      -1.26330000
H        1.51470000      -1.54450000      -3.33860000
H        0.14970000      -1.20760000      -4.27710000
H        1.78480000      -1.27980000       3.01820000
