16
Properties=species:S:1:pos:R:3 gdb_125439=T pbc="F F F"
C        0.10000000       1.46090000      -0.11530000
C        0.02600000      -0.02730000      -0.06460000
N        0.14380000      -0.86010000      -1.08530000
C        0.01920000      -2.09400000      -0.50890000
C        0.11230000      -3.36210000      -1.29260000
C        1.48610000      -3.55270000      -1.92680000
O        2.04120000      -4.61500000      -2.02030000
N       -0.16610000      -2.07530000       0.80140000
N       -0.16210000      -0.74400000       1.06510000
H        1.07100000       1.82390000       0.23940000
H       -0.02810000       1.78770000      -1.14780000
H       -0.67640000       1.92450000       0.50090000
H       -0.12250000      -4.22820000      -0.67220000
H       -0.60700000      -3.32300000      -2.12290000
H        1.93870000      -2.61730000      -2.32140000
H       -0.29830000      -0.42330000       2.00980000
