14
Properties=species:S:1:pos:R:3 gdb_61150=T pbc="F F F"
C       -0.25530000       1.37480000       0.06910000
N       -0.04730000      -0.06190000      -0.05570000
C        0.01730000      -0.84460000       1.17060000
C       -1.24710000      -0.80860000       1.91790000
N       -2.23740000      -0.75700000       2.50970000
C        0.09250000      -0.73870000      -1.23340000
O        0.26510000      -1.93540000      -1.33650000
C        0.03170000       0.09890000      -2.44540000
N       -0.00120000       0.68880000      -3.43840000
H        0.56930000       1.83020000       0.62910000
H       -0.30190000       1.83080000      -0.91920000
H       -1.19360000       1.57630000       0.59580000
H        0.25430000      -1.87460000       0.89330000
H        0.81780000      -0.46500000       1.81750000
