15
Properties=species:S:1:pos:R:3 gdb_62310=T pbc="F F F"
O        0.00540000       1.43050000      -0.11430000
C        0.04410000       0.03200000      -0.02960000
C        0.99430000      -0.54810000      -0.98660000
N        1.78190000      -0.94050000      -1.73570000
C       -0.01260000      -0.62070000       1.36920000
C       -1.50810000      -0.23590000       1.57980000
C       -1.80980000      -1.70010000       1.88420000
N       -0.74930000      -1.85760000       0.79310000
C       -1.34110000      -0.61520000       0.07740000
H        0.90640000       1.77150000      -0.08110000
H        0.77690000      -0.73400000       2.11280000
H       -1.91450000       0.68660000       1.99890000
H       -1.49790000      -2.10400000       2.85210000
H       -2.78770000      -2.09830000       1.59720000
H       -2.10530000      -0.71650000      -0.69270000
