19
Properties=species:S:1:pos:R:3 gdb_39987=T pbc="F F F"
C       -0.04580000       1.49530000       0.03440000
C        1.29180000       0.76470000       0.04900000
C        0.00850000       0.00310000      -0.05260000
O       -0.42520000      -0.76850000       1.06540000
C       -1.02570000      -1.88060000       0.42770000
C       -0.17930000      -2.33630000      -0.79960000
C       -1.48170000      -2.75440000      -1.51720000
C       -1.84560000      -1.42610000      -0.81780000
C       -0.44160000      -0.84410000      -1.21300000
H       -0.38920000       1.91870000       0.97160000
H       -0.32000000       2.06080000      -0.85040000
H        1.93070000       0.83140000      -0.82580000
H        1.81780000       0.71320000       0.99570000
H       -1.41870000      -2.58540000       1.15910000
H        0.78380000      -2.84690000      -0.78230000
H       -1.45980000      -2.73620000      -2.60960000
H       -1.97930000      -3.65800000      -1.15260000
H       -2.79590000      -0.89160000      -0.82140000
H       -0.24580000      -0.50610000      -2.23040000
