16
Properties=species:S:1:pos:R:3 gdb_44856=T pbc="F F F"
O        0.01350000       0.02140000       0.01690000
C       -0.00810000       1.22180000       0.02490000
C       -1.25710000       2.14240000       0.03040000
C       -0.58230000       3.53890000       0.03070000
N        0.64590000       3.33900000      -0.77900000
C        1.19050000       2.20320000      -0.00890000
C        1.19290000       2.79070000       1.41290000
O        1.34540000       4.20720000       1.48040000
C        0.02410000       3.67860000       1.43410000
H       -1.85070000       1.97590000      -0.87440000
H       -1.89580000       1.91930000       0.89110000
H       -1.19250000       4.36810000      -0.32700000
H        0.40200000       3.04140000      -1.72110000
H        2.12170000       1.78930000      -0.39130000
H        1.54740000       2.20920000       2.25660000
H       -0.60690000       3.83910000       2.30260000
