17
Properties=species:S:1:pos:R:3 gdb_81306=T pbc="F F F"
O       -0.06630000       1.37980000       0.06140000
C       -0.00380000      -0.02670000       0.02650000
C       -1.42660000      -0.60600000      -0.13890000
C       -1.25940000      -0.42670000      -1.67150000
C        0.26370000      -0.61160000      -1.40100000
C        0.56330000      -2.08860000      -1.26110000
O        1.48110000      -2.66180000      -1.77760000
O       -0.30760000      -2.77880000      -0.47190000
C       -1.38730000      -2.09040000       0.19410000
H        0.82740000       1.72410000      -0.03980000
H        0.60970000      -0.42290000       0.84750000
H       -2.24370000      -0.10430000       0.38350000
H       -1.75170000      -1.14440000      -2.33190000
H       -1.48040000       0.59210000      -1.98640000
H        1.00600000      -0.14050000      -2.04420000
H       -1.25070000      -2.25070000       1.26970000
H       -2.31450000      -2.58630000      -0.11300000
