21
Properties=species:S:1:pos:R:3 gdb_96166=T pbc="F F F"
O       -0.09900000       1.46590000       0.06420000
C        0.00750000       0.04740000      -0.02050000
C        0.77890000      -0.49800000       1.19300000
C        1.04320000      -2.01290000       1.24160000
C       -0.22530000      -2.88220000       1.32570000
C       -0.91190000      -3.02700000      -0.01960000
O       -2.32950000      -2.84150000      -0.08570000
C       -1.48830000      -1.86860000      -0.71700000
C       -1.43140000      -0.47580000      -0.12470000
H        0.78450000       1.82400000       0.19750000
H        0.54980000      -0.23290000      -0.94140000
H        1.74930000       0.01790000       1.22910000
H        0.23440000      -0.19150000       2.09600000
H        1.63700000      -2.31670000       0.36860000
H        1.67180000      -2.21410000       2.11650000
H        0.03250000      -3.87710000       1.70510000
H       -0.93220000      -2.44890000       2.04090000
H       -0.54960000      -3.85120000      -0.63710000
H       -1.52040000      -1.90770000      -1.80710000
H       -1.90280000      -0.47530000       0.86280000
H       -1.99770000       0.22090000      -0.75020000
