16
Properties=species:S:1:pos:R:3 gdb_42982=T pbc="F F F"
O        0.06980000       0.11320000       0.35470000
C        0.00730000       1.29430000       0.13300000
C       -1.20150000       2.11000000      -0.19300000
C       -1.38530000       3.31780000       0.67680000
N       -0.78610000       3.46360000      -0.63850000
C        0.69780000       3.52390000      -0.59560000
C        1.19220000       2.25440000       0.08240000
C        2.29700000       2.12600000       1.05050000
O        2.44660000       1.70380000      -0.29900000
H       -2.04830000       1.63820000      -0.67790000
H       -2.38590000       3.72610000       0.78160000
H       -0.75660000       3.41710000       1.56000000
H        1.06760000       3.54540000      -1.62570000
H        1.01390000       4.44570000      -0.09980000
H        2.85440000       3.01870000       1.33260000
H        2.26390000       1.32410000       1.78630000
