15
Properties=species:S:1:pos:R:3 gdb_21238=T pbc="F F F"
C        0.15700000       1.39080000       0.17380000
O        0.12630000      -0.02540000       0.13160000
C        0.66220000      -0.59350000      -0.97530000
C        0.73020000      -1.93780000      -1.20900000
C        0.29190000      -3.11890000      -0.42430000
O        1.32410000      -2.13910000      -2.40440000
N        1.65820000      -0.92340000      -2.97960000
C        1.26210000      -0.00880000      -2.12500000
H        1.18680000       1.77090000       0.14510000
H       -0.41010000       1.82940000      -0.65790000
H       -0.30670000       1.68220000       1.11720000
H       -0.44210000      -3.71490000      -0.97720000
H        1.13640000      -3.77340000      -0.18330000
H       -0.16500000      -2.78240000       0.50870000
H        1.41880000       1.03330000      -2.36060000
