16
Properties=species:S:1:pos:R:3 gdb_30860=T pbc="F F F"
C       -0.71470000       0.92270000      -0.07870000
N        0.68270000       0.47600000      -0.02690000
C        0.98910000      -0.46170000       0.96600000
C        0.64100000      -1.75950000       1.22500000
O       -0.17470000      -2.53930000       0.47550000
N        1.22700000      -2.23800000       2.37370000
C        1.93490000      -1.22540000       2.82150000
O        2.69140000      -1.21670000       3.93290000
N        1.84450000      -0.13320000       2.04510000
H       -0.97060000       1.41430000       0.86450000
H       -0.82520000       1.65590000      -0.88410000
H       -1.43210000       0.10640000      -0.24460000
H        0.98500000       0.16350000      -0.94230000
H       -0.22150000      -3.39180000       0.92350000
H        2.60590000      -2.09480000       4.32440000
H        2.31010000       0.74890000       2.17270000
