19
Properties=species:S:1:pos:R:3 gdb_78458=T pbc="F F F"
C       -0.08640000       1.40790000      -0.04900000
N        0.01060000      -0.04640000       0.00430000
C        1.37220000      -0.57600000      -0.19280000
C        0.75750000      -0.56730000       1.16360000
C        0.64340000      -2.08660000       1.40710000
N        1.97250000      -2.61990000       0.90990000
C        1.47260000      -2.09840000      -0.42280000
C        0.08570000      -2.64130000       0.05510000
O       -0.04980000      -4.03010000       0.00260000
H        0.80150000       1.92810000       0.35000000
H       -0.22720000       1.71920000      -1.08850000
H       -0.95930000       1.72960000       0.52720000
H        2.16370000       0.10140000      -0.49870000
H        1.05260000       0.11720000       1.95320000
H        0.29160000      -2.44380000       2.37510000
H        2.77290000      -2.09660000       1.26930000
H        1.96680000      -2.46760000      -1.32170000
H       -0.81100000      -2.18870000      -0.35420000
H        0.76980000      -4.38370000       0.37630000
