18
Properties=species:S:1:pos:R:3 gdb_102037=T pbc="F F F"
C       -0.17920000       1.31990000      -0.09860000
N       -0.03110000      -0.11500000       0.05310000
C        0.70080000      -0.66150000       1.05280000
O        1.35230000      -0.02500000       1.86400000
C        0.71160000      -2.20870000       1.07510000
C        1.42260000      -2.73480000       2.31830000
O        1.54850000      -4.14120000       2.14510000
C       -0.66170000      -2.84470000       0.91050000
O       -1.45780000      -2.54150000       0.05190000
H        0.57550000       1.80290000       0.52270000
H       -0.03080000       1.61200000      -1.14270000
H       -1.17060000       1.66190000       0.22200000
H       -0.64350000      -0.73930000      -0.45610000
H        1.28500000      -2.53530000       0.19490000
H        2.39250000      -2.23790000       2.41930000
H        0.83390000      -2.48860000       3.21510000
H        1.96220000      -4.50600000       2.93270000
H       -0.89310000      -3.64440000       1.64070000
