20
Properties=species:S:1:pos:R:3 gdb_100651=T pbc="F F F"
C       -0.05550000       1.61040000       0.11570000
C       -0.00660000       0.08360000       0.00530000
C       -1.40280000      -0.53660000      -0.09460000
O       -2.08320000      -0.16740000      -1.28100000
C       -1.39430000      -2.09130000       0.08260000
C       -0.57510000      -2.81890000      -0.98790000
O       -0.82070000      -2.44430000       1.33610000
C       -2.79870000      -2.56660000       0.03650000
N       -3.89070000      -2.94350000       0.06120000
H        0.95230000       2.03500000       0.12650000
H       -0.60280000       2.04690000      -0.72450000
H       -0.55970000       1.92180000       1.03680000
H        0.57670000      -0.20420000      -0.88050000
H        0.50820000      -0.35030000       0.86790000
H       -2.02410000      -0.13940000       0.72010000
H       -1.47570000      -0.26860000      -2.02180000
H        0.47610000      -2.53640000      -0.90180000
H       -0.65590000      -3.89800000      -0.84530000
H       -0.94150000      -2.57450000      -1.98760000
H       -1.39720000      -2.12260000       2.03920000
