17
Properties=species:S:1:pos:R:3 gdb_31856=T pbc="F F F"
C        0.00940000       1.39560000       0.02910000
O       -0.02760000      -0.02790000      -0.05390000
C       -1.23070000      -0.61370000      -0.02700000
N       -2.32010000       0.14400000       0.07420000
C       -3.48460000      -0.51110000       0.09500000
C       -3.59010000      -1.89430000       0.01800000
C       -4.90830000      -2.61950000       0.04260000
C       -2.36260000      -2.56080000      -0.08480000
N       -1.18650000      -1.94830000      -0.10880000
H        1.06700000       1.65970000      -0.00960000
H       -0.52730000       1.85420000      -0.80630000
H       -0.43630000       1.74870000       0.96330000
H       -4.37820000       0.10630000       0.17770000
H       -5.06240000      -3.20860000      -0.86820000
H       -4.97290000      -3.31180000       0.88940000
H       -5.74080000      -1.91520000       0.12640000
H       -2.33440000      -3.64820000      -0.15110000
