17
Properties=species:S:1:pos:R:3 gdb_84535=T pbc="F F F"
O        0.06460000       1.39990000      -0.14490000
C        0.07190000      -0.02230000      -0.03880000
C        0.69230000      -0.53630000       1.25330000
C       -0.17190000      -1.25800000       1.96690000
C       -1.50010000      -1.35230000       1.28510000
C       -2.29320000      -0.04530000       1.12760000
C       -2.05980000       1.17080000       1.95210000
O       -2.94820000       1.94370000       2.22530000
C       -1.36060000      -0.54750000       0.02710000
H        0.97700000       1.70450000      -0.18950000
H        0.57950000      -0.45240000      -0.91730000
H        1.70440000      -0.28070000       1.54840000
H        0.02260000      -1.70590000       2.93480000
H       -2.07270000      -2.27160000       1.33160000
H       -3.34700000      -0.17380000       0.89960000
H       -1.03030000       1.32470000       2.32200000
H       -1.84080000      -0.84460000      -0.89640000
