19
Properties=species:S:1:pos:R:3 gdb_41805=T pbc="F F F"
C       -0.10660000       1.40580000      -0.34120000
O        1.06210000       2.03200000       0.19690000
C        2.05860000       1.06530000       0.47300000
C        1.56260000      -0.23880000      -0.16510000
C        0.03760000      -0.09710000      -0.01510000
C       -0.45460000      -0.42180000       1.37630000
C        0.04710000       0.03850000       2.52330000
C        1.20320000       0.98660000       2.74500000
O        2.30690000       0.93890000       1.85480000
H       -0.98870000       1.86410000       0.11380000
H       -0.14410000       1.56890000      -1.42820000
H        3.01090000       1.41260000       0.05940000
H        1.84070000      -0.26100000      -1.22470000
H        1.98130000      -1.11320000       0.33280000
H       -0.50180000      -0.70230000      -0.74730000
H       -1.32930000      -1.06550000       1.42980000
H       -0.45780000      -0.24230000       3.44640000
H        0.80420000       2.01210000       2.78860000
H        1.64580000       0.77960000       3.72440000
