19
Properties=species:S:1:pos:R:3 gdb_35854=T pbc="F F F"
C        0.05860000      -1.28190000       0.45790000
C        0.05030000      -0.10000000       0.23530000
C        0.05070000       1.33710000      -0.02260000
C       -0.67430000       2.13000000       1.09490000
C        0.38640000       2.23400000       2.20540000
C        1.71560000       2.46450000       1.44920000
C        1.47510000       1.92770000       0.03380000
C        2.52620000       1.54100000      -0.90630000
O        1.83310000       2.78670000      -1.05400000
H        0.06030000      -2.32700000       0.64570000
H       -0.37610000       1.53140000      -1.01140000
H       -0.92080000       3.12540000       0.70870000
H       -1.60010000       1.65110000       1.41960000
H        0.16790000       3.02690000       2.92470000
H        0.42600000       1.29030000       2.75870000
H        1.95360000       3.52960000       1.36850000
H        2.56280000       1.97560000       1.93710000
H        3.57110000       1.62120000      -0.60830000
H        2.31980000       0.79400000      -1.67190000
