20
Properties=species:S:1:pos:R:3 gdb_54212=T pbc="F F F"
C        0.18820000       1.33600000       0.04880000
C       -0.07720000      -0.18390000       0.01330000
C        0.66550000      -0.82320000      -1.21030000
C        1.90540000      -1.42710000      -0.59960000
C        1.84900000      -1.44530000       0.73020000
C        0.56830000      -0.85740000       1.25940000
C       -1.59520000      -0.41880000      -0.01760000
N       -2.21070000      -0.08050000      -1.19090000
O       -2.22680000      -0.84190000       0.93220000
H        1.26610000       1.51930000       0.10690000
H       -0.19440000       1.83870000      -0.84520000
H       -0.28510000       1.79430000       0.92270000
H        0.05750000      -1.59700000      -1.69930000
H        0.89490000      -0.07690000      -1.98290000
H        2.71370000      -1.82450000      -1.20350000
H        2.61150000      -1.85840000       1.38160000
H        0.73370000      -0.13480000       2.06720000
H       -0.09760000      -1.62340000       1.67170000
H       -1.70220000       0.20030000      -2.01010000
H       -3.20280000      -0.23390000      -1.26500000
