19
Properties=species:S:1:pos:R:3 gdb_20033=T pbc="F F F"
O       -0.02640000       1.33690000      -0.63000000
C        0.02440000       0.22570000       0.24940000
C       -1.30760000      -0.48790000       0.29000000
N       -1.68260000      -1.14180000      -0.98240000
C       -1.48040000      -1.96640000       0.22320000
C       -0.36780000      -2.96400000       0.20580000
C       -0.11230000      -3.81540000       1.42600000
C       -0.69360000      -4.43850000       0.18300000
H       -0.34110000       0.98380000      -1.47110000
H        0.82280000      -0.47220000      -0.03880000
H        0.27370000       0.62250000       1.23930000
H       -2.09160000       0.06760000       0.80290000
H       -2.67260000      -1.01890000      -1.17370000
H       -2.38110000      -2.34080000       0.71220000
H        0.50010000      -2.66190000      -0.36950000
H        0.91510000      -4.04060000       1.68880000
H       -0.76810000      -3.68310000       2.28070000
H       -1.74040000      -4.72510000       0.20130000
H       -0.06610000      -5.09230000      -0.41200000
