17
Properties=species:S:1:pos:R:3 gdb_11003=T pbc="F F F"
C       -0.04210000       1.51780000       0.00800000
C        0.05060000       0.01240000       0.00750000
C       -0.80890000      -0.81260000       0.92090000
C        0.69680000      -0.78860000       1.12200000
C        1.43530000      -1.93140000       0.47850000
O        2.16850000      -2.73730000       1.00790000
N        1.11130000      -1.89500000      -0.86020000
C        0.45070000      -0.67910000      -1.30090000
H        0.90050000       1.97590000      -0.31190000
H       -0.83010000       1.86600000      -0.67040000
H       -0.27730000       1.89640000       1.00710000
H       -1.40080000      -0.27720000       1.65590000
H       -1.26300000      -1.72760000       0.55320000
H        1.11920000      -0.35100000       2.01690000
H        1.53970000      -2.54870000      -1.49550000
H       -0.41910000      -0.89630000      -1.93410000
H        1.13080000      -0.03530000      -1.87780000
