22
Properties=species:S:1:pos:R:3 gdb_81798=T pbc="F F F"
C       -0.09790000       1.53930000      -0.02230000
C        0.00250000       0.01860000      -0.01030000
C        1.13530000      -0.55410000      -0.88680000
N        1.29280000      -1.99550000      -0.70730000
C        1.85490000      -1.10630000       0.31370000
C        3.30940000      -1.20990000       0.65810000
C        0.73620000      -0.59290000       1.21420000
C        0.89550000       0.03110000       2.56690000
C        0.15720000      -1.28180000       2.41840000
H        0.87540000       2.00040000       0.17530000
H       -0.44990000       1.89680000      -0.99620000
H       -0.80020000       1.90020000       0.73660000
H       -0.97990000      -0.42390000      -0.22320000
H        1.52650000      -0.10260000      -1.79310000
H        0.42950000      -2.44250000      -0.40090000
H        3.88890000      -1.46570000      -0.23260000
H        3.68920000      -0.26720000       1.06560000
H        3.48530000      -1.99430000       1.40470000
H        1.87950000       0.01080000       3.02510000
H        0.31960000       0.92080000       2.80060000
H       -0.92130000      -1.27280000       2.54240000
H        0.63830000      -2.18490000       2.78150000
