16
Properties=species:S:1:pos:R:3 gdb_66338=T pbc="F F F"
O       -0.07830000       1.40420000       0.02730000
C        0.02830000      -0.01320000       0.00310000
C       -1.42510000      -0.53640000      -0.00970000
O       -1.46430000      -1.91150000      -0.29640000
C       -1.01950000      -2.21690000      -1.60450000
C        0.23570000      -1.48740000      -1.98620000
C        0.73750000      -0.50540000      -1.24450000
C        0.74740000      -0.48300000       1.20910000
N        1.34120000      -0.81350000       2.14430000
H        0.80090000       1.77950000       0.15130000
H       -1.89360000      -0.39360000       0.96540000
H       -1.96620000       0.06190000      -0.75770000
H       -0.85510000      -3.29990000      -1.62690000
H       -1.81160000      -1.99690000      -2.34340000
H        0.71870000      -1.79350000      -2.91010000
H        1.65830000       0.00570000      -1.51090000
