18
Properties=species:S:1:pos:R:3 gdb_119507=T pbc="F F F"
C        0.12710000       1.46970000      -0.02890000
O        0.07780000       0.06480000       0.05980000
C        0.46270000      -0.57230000      -1.14020000
C        0.46550000      -2.04540000      -0.90100000
O        0.48200000      -2.92390000      -2.02320000
C       -0.54390000      -3.09620000      -1.04050000
C        0.05790000      -3.85050000       0.19950000
N        1.48050000      -4.15130000      -0.09300000
C        1.08030000      -2.79300000       0.34380000
H        1.14170000       1.82840000      -0.26380000
H       -0.55910000       1.85430000      -0.79960000
H       -0.17370000       1.86850000       0.94270000
H       -0.22660000      -0.33600000      -1.96660000
H        1.47030000      -0.23990000      -1.44730000
H       -1.57630000      -3.07310000      -1.36800000
H       -0.50700000      -4.38240000       0.95280000
H        1.84890000      -4.62140000       0.73510000
H        1.47220000      -2.31750000       1.23190000
