14
Properties=species:S:1:pos:R:3 gdb_131554=T pbc="F F F"
O        0.07920000       1.47770000       0.16540000
C        0.05660000       0.07320000      -0.03600000
C        0.64250000      -0.74000000       1.18490000
O       -0.45940000      -1.45860000       1.85110000
C       -1.46770000      -1.32070000       0.99970000
C       -1.30660000      -0.54310000      -0.10180000
C       -2.57420000      -0.65030000      -0.72200000
N       -3.40030000      -1.42360000      -0.04840000
O       -2.65530000      -1.87190000       1.10570000
H       -0.64960000       1.70110000       0.75570000
H        0.68350000      -0.08860000      -0.91710000
H        1.36060000      -1.49820000       0.86440000
H        1.09880000      -0.07500000       1.91910000
H       -2.94360000      -0.20430000      -1.63550000
