21
Properties=species:S:1:pos:R:3 gdb_90347=T pbc="F F F"
C       -0.15230000       1.46120000       0.24170000
C        0.04330000      -0.02830000      -0.00650000
C        1.25860000      -0.37370000      -0.94670000
C        2.05670000      -0.60730000       0.31930000
C        3.24250000      -0.31110000       0.83350000
C        3.31630000      -0.28590000       2.34550000
C        2.01870000       0.33880000       2.89460000
O        0.83370000      -0.33640000       2.47730000
C        0.81410000      -0.78870000       1.14080000
H        0.80270000       1.96130000       0.43530000
H       -0.61160000       1.94450000      -0.62680000
H       -0.79850000       1.62860000       1.10860000
H       -0.90450000      -0.49530000      -0.28870000
H        1.08410000      -1.28150000      -1.53320000
H        1.60750000       0.41600000      -1.61770000
H        4.09180000       0.00180000       0.23330000
H        3.44780000      -1.29110000       2.76690000
H        4.16620000       0.31370000       2.68930000
H        1.99850000       0.30000000       3.98820000
H        1.98500000       1.39630000       2.59320000
H        0.47340000      -1.83280000       1.16560000
