19
Properties=species:S:1:pos:R:3 gdb_111254=T pbc="F F F"
C        0.03220000       1.56200000      -0.03640000
C        0.08110000       0.06130000      -0.01080000
C       -0.89060000      -0.79320000       0.80270000
C        0.56840000      -0.96430000       1.05610000
C        1.20650000      -1.85170000      -0.02840000
C        0.84200000      -3.31890000      -0.24190000
O        1.39830000      -3.78710000      -1.45740000
C        0.67110000      -0.83420000      -1.06260000
O        0.79510000      -0.76120000      -2.25800000
H        1.00440000       1.98760000      -0.30450000
H       -0.69900000       1.91470000      -0.77160000
H       -0.25730000       1.96170000       0.94040000
H       -1.43980000      -0.21990000       1.54360000
H       -1.47950000      -1.57490000       0.33330000
H        1.02610000      -0.72900000       2.00830000
H        2.29990000      -1.76020000      -0.02300000
H        1.25540000      -3.94530000       0.55640000
H       -0.25150000      -3.45060000      -0.22240000
H        1.19150000      -3.13580000      -2.13990000
