21
Properties=species:S:1:pos:R:3 gdb_58444=T pbc="F F F"
C        0.11090000       1.38180000      -0.33710000
C        0.06630000      -0.06300000       0.17620000
O        0.51880000      -0.14420000       1.52110000
C       -1.32910000      -0.66210000       0.07960000
O       -2.21340000      -0.04710000       1.00200000
C       -2.00500000      -1.15210000      -1.17170000
C       -1.02920000      -1.87700000      -2.10800000
C       -0.66210000      -2.86060000      -0.94580000
C       -1.64090000      -2.12410000      -0.02760000
H        1.11660000       1.79000000      -0.21040000
H       -0.15930000       1.43610000      -1.39740000
H       -0.57690000       2.02100000       0.22870000
H        0.76770000      -0.66260000      -0.41180000
H       -0.24640000       0.08360000       2.06510000
H       -2.49590000       0.79450000       0.62720000
H       -2.98020000      -0.76630000      -1.44790000
H       -1.54280000      -2.38770000      -2.92530000
H       -0.21900000      -1.27850000      -2.53620000
H       -0.98450000      -3.88110000      -1.16190000
H        0.38210000      -2.89220000      -0.62130000
H       -2.29420000      -2.57710000       0.70760000
