20
Properties=species:S:1:pos:R:3 gdb_65085=T pbc="F F F"
C       -0.02500000       1.50760000      -0.30760000
C       -0.01450000       0.01140000      -0.08810000
C        1.18480000      -0.77720000      -0.41450000
O        0.88010000      -0.44960000       0.94210000
C       -1.35300000      -0.66630000      -0.07480000
C       -1.69240000      -2.15200000       0.18190000
N       -3.09030000      -1.54260000      -0.03690000
C       -2.57290000      -0.39200000       0.84390000
C       -2.42270000      -0.77410000      -1.19100000
H        0.98980000       1.90930000      -0.25820000
H       -0.45320000       1.75580000      -1.28470000
H       -0.62770000       2.00520000       0.45950000
H        1.09090000      -1.83090000      -0.67310000
H        2.05590000      -0.27470000      -0.83390000
H       -1.41820000      -2.88570000      -0.58170000
H       -1.53740000      -2.54450000       1.18930000
H       -2.48580000      -0.65500000       1.90110000
H       -3.12660000       0.54100000       0.70690000
H       -2.96370000       0.13110000      -1.48080000
H       -2.19740000      -1.39980000      -2.05940000
