21
Properties=species:S:1:pos:R:3 gdb_77082=T pbc="F F F"
C        0.03430000       1.55160000      -0.05330000
N       -0.02980000       0.13110000       0.21990000
C       -1.27040000      -0.51010000       0.67630000
C       -0.40230000      -1.51430000       1.49110000
C        0.79170000      -0.53470000       1.27730000
C        2.07480000      -1.14170000       0.71970000
C        1.07690000       0.32300000       2.51690000
C       -2.15570000       0.32270000       1.50870000
N       -2.83640000       1.00820000       2.14530000
H        1.05750000       1.81440000      -0.33910000
H       -0.61550000       1.78580000      -0.90340000
H       -0.26820000       2.19190000       0.79040000
H       -1.87650000      -0.93180000      -0.13420000
H       -0.71130000      -1.69200000       2.52070000
H       -0.28430000      -2.46410000       0.96820000
H        1.86190000      -1.74440000      -0.16700000
H        2.78540000      -0.35750000       0.43490000
H        2.56370000      -1.77490000       1.46830000
H        1.54150000      -0.28970000       3.29660000
H        1.76850000       1.13890000       2.28170000
H        0.16410000       0.76010000       2.93150000
