27
Properties=species:S:1:pos:R:3 gdb_100295=T pbc="F F F"
C       -0.06570000       1.51460000       0.19600000
C       -0.02040000      -0.01100000       0.06800000
C        0.68550000      -0.54940000      -1.20070000
C        0.60640000      -2.08480000      -1.20800000
O        0.06380000       0.00970000      -2.37580000
C       -1.24590000      -0.39620000      -2.69890000
C        2.15220000      -0.03740000      -1.32040000
C        3.01430000      -0.29640000      -0.07620000
C        2.85680000      -0.57330000      -2.57710000
H        0.92670000       1.94410000       0.36290000
H       -0.47380000       1.96740000      -0.71170000
H       -0.69670000       1.81080000       1.03970000
H        0.45840000      -0.45200000       0.94920000
H       -1.04550000      -0.40060000       0.07570000
H       -0.41320000      -2.43220000      -1.01800000
H        0.93200000      -2.49470000      -2.16710000
H        1.24090000      -2.50620000      -0.42360000
H       -1.96990000      -0.19390000      -1.89670000
H       -1.54020000       0.18680000      -3.57600000
H       -1.30910000      -1.46200000      -2.95850000
H        2.06000000       1.04750000      -1.44550000
H        3.12400000      -1.36720000       0.12880000
H        4.02100000       0.10390000      -0.23440000
H        2.61320000       0.17810000       0.82330000
H        3.79970000      -0.04000000      -2.73640000
H        3.09870000      -1.63790000      -2.48340000
H        2.23130000      -0.43740000      -3.46110000
