15
Properties=species:S:1:pos:R:3 gdb_4795=T pbc="F F F"
C       -0.11840000       1.41490000       0.01880000
O       -0.01630000      -0.00720000       0.02190000
C       -1.15990000      -0.69930000       0.00710000
C       -1.35760000      -2.04480000      -0.03730000
C       -2.78730000      -2.21790000      -0.02120000
N       -3.44330000      -3.45060000      -0.13270000
C       -3.33420000      -0.97280000       0.03470000
O       -2.32020000      -0.02090000       0.04590000
H        0.90780000       1.78360000       0.02170000
H       -0.64020000       1.77300000      -0.87470000
H       -0.64650000       1.77680000       0.90680000
H       -0.59760000      -2.80640000      -0.08920000
H       -2.97000000      -4.18880000       0.37230000
H       -4.41000000      -3.41120000       0.16300000
H       -4.33750000      -0.58690000       0.05110000
