23
Properties=species:S:1:pos:R:3 gdb_113816=T pbc="F F F"
C       -0.01990000       1.60320000      -0.17720000
C       -0.00970000       0.11780000       0.20320000
C       -1.38020000      -0.51730000       0.07610000
C       -1.85670000      -1.10090000      -1.22920000
C       -1.59940000      -2.01300000      -0.04710000
C       -0.45900000      -2.97190000      -0.09070000
O       -0.05550000      -3.58810000       1.14350000
C       -0.58030000      -4.42790000       0.10920000
C       -1.86660000      -5.16070000       0.39280000
H        0.97590000       2.04570000      -0.07560000
H       -0.34810000       1.74210000      -1.21270000
H       -0.70320000       2.17040000       0.46460000
H        0.71140000      -0.41100000      -0.43020000
H        0.35040000       0.00310000       1.23340000
H       -2.14390000      -0.00880000       0.66130000
H       -2.88080000      -0.94280000      -1.54840000
H       -1.14070000      -1.13740000      -2.04570000
H       -2.47820000      -2.38830000       0.46580000
H        0.38360000      -2.64330000      -0.70210000
H        0.18190000      -5.04450000      -0.37450000
H       -2.60310000      -4.51950000       0.88070000
H       -2.29890000      -5.54750000      -0.53660000
H       -1.67460000      -6.01370000       1.05220000
