18
Properties=species:S:1:pos:R:3 gdb_47539=T pbc="F F F"
N       -0.04290000       1.34600000      -0.13830000
C        0.02200000       0.09360000       0.00990000
C       -1.20810000      -0.77680000       0.04250000
C       -1.34620000      -1.70030000       1.26080000
O       -0.29710000      -2.65640000       1.33860000
C        0.84540000      -2.16090000       1.95590000
C        2.16380000      -2.48640000       1.31090000
C        1.64440000      -1.07640000       1.26910000
O        1.22960000      -0.59430000       0.01580000
H        0.90140000       1.73630000      -0.18910000
H       -2.08280000      -0.12490000      -0.02450000
H       -1.18380000      -1.41230000      -0.85150000
H       -1.40520000      -1.11560000       2.18990000
H       -2.27330000      -2.27330000       1.16490000
H        0.79140000      -2.12160000       3.04500000
H        3.01990000      -2.71780000       1.93360000
H        2.09930000      -3.03140000       0.37620000
H        2.11780000      -0.31790000       1.88990000
