17
Properties=species:S:1:pos:R:3 gdb_83147=T pbc="F F F"
O        0.02370000       1.39490000       0.18730000
C       -0.00380000       0.00830000       0.01710000
C       -1.31960000      -0.69530000       0.03160000
C       -2.56320000       0.16340000      -0.22690000
C       -2.31880000       0.89620000      -1.56740000
C       -1.24140000       0.07730000      -2.25800000
O       -1.05990000      -0.06870000      -3.44780000
C       -0.46350000      -0.69510000      -1.24890000
O        0.26930000      -1.75930000      -1.73800000
H        0.81000000       1.73700000      -0.25200000
H        0.81540000      -0.53330000       0.49140000
H       -1.41430000      -1.59040000       0.63620000
H       -3.43560000      -0.49150000      -0.31140000
H       -2.75040000       0.85790000       0.59630000
H       -3.20500000       0.97020000      -2.20030000
H       -1.93010000       1.90650000      -1.40410000
H        0.17670000      -1.69740000      -2.70240000
