16
Properties=species:S:1:pos:R:3 gdb_97474=T pbc="F F F"
C       -0.04360000       1.55940000       0.05530000
C        0.00980000       0.02090000      -0.01190000
C        0.68550000      -0.47870000      -1.19880000
C        1.25140000      -0.87750000      -2.19310000
C        1.88470000      -1.32500000      -3.30660000
C        2.44930000      -1.73360000      -4.29890000
C        3.13980000      -2.13540000      -5.51390000
N        3.24270000      -3.48730000      -5.66880000
O        3.58210000      -1.33180000      -6.31270000
H        0.96370000       1.98320000       0.06330000
H       -0.57660000       1.96770000      -0.80710000
H       -0.56080000       1.87710000       0.96490000
H        0.51680000      -0.37230000       0.87910000
H       -1.00890000      -0.38760000       0.01690000
H        2.86700000      -4.12790000      -4.99200000
H        3.70900000      -3.84040000      -6.48820000
