20
Properties=species:S:1:pos:R:3 gdb_79587=T pbc="F F F"
C       -0.17840000       1.48090000      -0.11410000
N        0.08080000       0.05560000       0.04410000
C        1.39680000      -0.52820000      -0.15390000
C        2.51930000       0.32020000       0.42340000
O        3.08700000      -0.39250000       1.53970000
C        1.86570000       0.34620000       1.74660000
C        1.84700000       1.36200000       2.84380000
C        0.72120000      -0.53060000       1.21000000
C        0.06090000      -1.64750000       1.96300000
H        0.62510000       2.14350000       0.23450000
H       -0.35250000       1.68560000      -1.17540000
H       -1.09440000       1.73390000       0.42960000
H        1.50650000      -1.35180000      -0.85080000
H        3.14880000       1.06390000      -0.05130000
H        2.78100000       1.92980000       2.85310000
H        1.01030000       2.05700000       2.72410000
H        1.73890000       0.87370000       3.81880000
H       -0.61470000      -1.26070000       2.73510000
H       -0.52840000      -2.26830000       1.28370000
H        0.81380000      -2.27270000       2.45320000
