23
Properties=species:S:1:pos:R:3 gdb_108236=T pbc="F F F"
C       -0.25550000       1.29920000      -0.05710000
O        0.12540000      -0.05910000       0.09330000
C        0.72550000      -0.58630000      -1.03360000
C        2.15540000      -0.27020000      -1.48150000
C        2.30800000      -1.77380000      -1.89170000
C        0.88230000      -2.05910000      -1.38840000
C        0.48330000      -3.31740000      -0.67220000
C       -0.07610000      -1.17510000      -2.17870000
C       -1.56790000      -1.35640000      -1.98640000
H        0.61380000       1.94320000      -0.25080000
H       -0.97560000       1.42930000      -0.87630000
H       -0.72040000       1.60700000       0.88230000
H        2.27320000       0.47880000      -2.27170000
H        2.80360000      -0.00860000      -0.64140000
H        2.48280000      -1.96990000      -2.95520000
H        3.07800000      -2.28710000      -1.30980000
H        1.17790000      -3.54000000       0.14580000
H       -0.51950000      -3.24530000      -0.24380000
H        0.49210000      -4.17660000      -1.35470000
H        0.21280000      -0.91380000      -3.19860000
H       -1.83130000      -1.40870000      -0.92710000
H       -2.11780000      -0.51390000      -2.41930000
H       -1.92840000      -2.26880000      -2.47420000
