20
Properties=species:S:1:pos:R:3 gdb_55154=T pbc="F F F"
C       -0.23880000       1.37810000      -0.54460000
C       -0.12820000      -0.11670000      -0.28160000
O        0.86030000      -0.75930000      -0.59770000
N       -1.20140000      -0.70910000       0.32340000
C       -2.40010000      -0.04410000       0.83600000
C       -3.39670000      -1.17570000       1.01230000
C       -3.61890000      -2.07400000      -0.17820000
C       -2.63730000      -2.47810000       0.89160000
C       -1.18010000      -2.14110000       0.63870000
H        0.69580000       1.70850000      -0.99650000
H       -1.06610000       1.60350000      -1.22590000
H       -0.41300000       1.93900000       0.37950000
H       -2.21310000       0.44870000       1.80260000
H       -2.74700000       0.72280000       0.13580000
H       -4.19190000      -1.04280000       1.73570000
H       -4.55820000      -2.61340000      -0.22390000
H       -3.22970000      -1.76230000      -1.14310000
H       -2.86280000      -3.32520000       1.52770000
H       -0.72600000      -2.68480000      -0.19350000
H       -0.57180000      -2.34260000       1.53170000
