12
Properties=species:S:1:pos:R:3 gdb_27727=T pbc="F F F"
O       -0.11460000       1.21980000      -0.00900000
C        0.04900000      -0.09530000       0.01230000
N        1.16880000      -0.75730000       0.06920000
C        0.74880000      -2.07110000       0.06440000
O        1.61900000      -3.08490000       0.11400000
C       -0.61450000      -2.15250000       0.00460000
O       -1.06310000      -0.81130000      -0.02960000
C       -1.54270000      -3.19040000      -0.02560000
C       -2.34110000      -4.09410000      -0.05160000
H        0.76480000       1.61800000       0.02590000
H        2.50340000      -2.70020000       0.14910000
H       -3.03930000      -4.89330000      -0.07410000
