19
Properties=species:S:1:pos:R:3 gdb_106469=T pbc="F F F"
O        0.01620000       1.39990000       0.20670000
C        0.05130000       0.01280000      -0.08080000
C       -1.34690000      -0.57070000      -0.10330000
C       -1.56360000      -2.09470000       0.04860000
C       -2.72860000      -1.61460000       0.94730000
O       -1.98990000      -0.37560000       1.20290000
C       -3.92800000      -1.27870000       0.08510000
C       -3.69120000      -0.46630000      -0.94450000
C       -2.27900000       0.02980000      -1.17290000
H       -0.47600000       1.49040000       1.03180000
H        0.53040000      -0.09810000      -1.06020000
H        0.65440000      -0.53450000       0.65960000
H       -1.80590000      -2.68660000      -0.83510000
H       -0.75690000      -2.55590000       0.62270000
H       -2.96210000      -2.15170000       1.86820000
H       -4.90680000      -1.68590000       0.31330000
H       -4.47400000      -0.14040000      -1.62310000
H       -2.22910000       1.12350000      -1.11790000
H       -1.92890000      -0.24760000      -2.17690000
