17
Properties=species:S:1:pos:R:3 gdb_96931=T pbc="F F F"
C       -0.14470000       1.40290000      -0.03880000
N       -0.08250000      -0.04170000       0.13010000
C       -1.10860000      -0.73130000      -0.03270000
O       -2.43440000      -0.33680000      -0.33820000
C       -2.90910000      -1.68050000      -0.05770000
C       -2.33580000      -2.58200000      -1.08190000
O       -2.12030000      -2.19980000      -2.39490000
C       -1.45660000      -2.17780000       0.11990000
N       -0.89370000      -3.15040000       0.97560000
H        0.48200000       1.69110000      -0.89010000
H       -1.15750000       1.78980000      -0.19990000
H        0.28170000       1.88340000       0.84790000
H       -3.80050000      -1.77620000       0.54790000
H       -2.63490000      -3.62370000      -1.00680000
H       -2.21680000      -1.23900000      -2.42810000
H       -0.09700000      -3.60280000       0.53860000
H       -0.57070000      -2.73270000       1.84270000
