15
Properties=species:S:1:pos:R:3 gdb_8095=T pbc="F F F"
C       -0.13990000       1.45600000       0.03980000
C        0.09800000      -0.01500000       0.05510000
O       -1.07620000      -0.88110000      -0.08280000
C       -0.60320000      -1.69590000       0.96100000
N       -1.17130000      -2.63780000       1.55770000
C        0.69830000      -0.99310000       1.07850000
C        1.27290000      -0.82310000      -0.34730000
O        1.24280000      -1.79050000      -1.33450000
H        0.79620000       1.98980000       0.22610000
H       -0.52360000       1.77390000      -0.93560000
H       -0.86570000       1.74310000       0.80660000
H       -2.10750000      -2.80450000       1.18570000
H        1.27710000      -0.84400000       1.97860000
H        2.22550000      -0.30000000      -0.34260000
H        0.31390000      -1.98830000      -1.51220000
