19
Properties=species:S:1:pos:R:3 gdb_114647=T pbc="F F F"
C       -0.00940000       1.29550000      -0.14900000
O       -0.03550000      -0.06270000       0.22810000
C       -1.31100000      -0.65430000       0.14300000
C       -1.74060000      -1.04490000      -1.32390000
C       -1.80080000      -2.57930000      -1.17840000
C       -2.54410000      -2.71740000       0.19370000
C       -1.26080000      -2.04700000       0.79100000
C       -0.54720000      -2.84870000      -0.31930000
O        0.42240000      -3.53870000      -0.40110000
H        1.01550000       1.64810000      -0.01370000
H       -0.29590000       1.44200000      -1.20110000
H       -0.68120000       1.90200000       0.47850000
H       -2.05710000      -0.00780000       0.62870000
H       -2.70950000      -0.62560000      -1.60880000
H       -0.99020000      -0.71590000      -2.04720000
H       -2.04780000      -3.18000000      -2.05100000
H       -3.47640000      -2.15580000       0.29380000
H       -2.67750000      -3.74930000       0.52090000
H       -0.98250000      -2.10550000       1.84020000
