21
Properties=species:S:1:pos:R:3 gdb_103445=T pbc="F F F"
C       -0.11500000       1.61690000      -0.06700000
C       -0.01410000       0.10580000      -0.04630000
C       -1.25110000      -0.57020000       0.50790000
O       -1.40400000      -0.19310000       1.87170000
C        0.68280000      -0.67610000      -1.13790000
C        1.65960000       0.04070000      -2.07460000
C        2.77730000       0.49150000      -1.15560000
C        2.57170000       0.10550000       0.10660000
C        1.28920000      -0.63370000       0.26200000
H        0.83610000       2.09170000      -0.31280000
H       -0.85820000       1.94240000      -0.80570000
H       -0.43710000       1.97880000       0.91330000
H       -2.13040000      -0.26640000      -0.08380000
H       -1.15200000      -1.66320000       0.41300000
H       -2.26490000      -0.49880000       2.17160000
H        0.19430000      -1.57270000      -1.50470000
H        2.02760000      -0.63560000      -2.85740000
H        1.19600000       0.88830000      -2.59780000
H        3.61540000       1.08470000      -1.50450000
H        3.23150000       0.31410000       0.94140000
H        1.23230000      -1.47160000       0.94920000
