21
Properties=species:S:1:pos:R:3 gdb_87038=T pbc="F F F"
C       -0.08140000       1.33190000      -0.20670000
C        0.20190000      -0.13120000       0.03910000
C        1.60280000      -0.66980000       0.03880000
C        0.81790000      -0.63740000       1.34630000
C        1.22540000       0.33850000       2.32560000
C        1.54820000       1.13460000       3.16860000
C        0.28300000      -1.90980000       1.96060000
C        0.24010000      -3.22650000       1.22800000
C        1.20480000      -3.02950000       2.37130000
H        0.67600000       1.96550000       0.26210000
H       -0.09130000       1.54870000      -1.28060000
H       -1.05500000       1.62100000       0.20320000
H       -0.54750000      -0.81210000      -0.35630000
H        1.80030000      -1.63230000      -0.41940000
H        2.41730000       0.04080000      -0.04790000
H        1.84050000       1.83710000       3.90880000
H       -0.55350000      -1.72560000       2.62940000
H       -0.62790000      -3.85730000       1.38520000
H        0.64790000      -3.29020000       0.22520000
H        2.25510000      -2.92260000       2.12220000
H        1.01670000      -3.54050000       3.30870000
