17
Properties=species:S:1:pos:R:3 gdb_7279=T pbc="F F F"
C        0.02020000       1.55310000       0.04010000
C       -0.00850000       0.02840000       0.03360000
O        0.69770000      -0.52580000       1.13940000
C       -1.45090000      -0.52040000      -0.02280000
O       -2.15830000      -0.02170000      -1.14200000
C       -1.44600000      -2.06310000       0.02170000
C       -2.78800000      -2.63200000       0.08940000
N       -3.84980000      -3.08300000       0.15150000
H        1.05170000       1.91420000       0.02610000
H       -0.51520000       1.95400000      -0.82290000
H       -0.47040000       1.94120000       0.94230000
H        0.52580000      -0.34250000      -0.85360000
H        0.43730000      -0.03990000       1.93000000
H       -2.00150000      -0.14720000       0.84990000
H       -1.75900000      -0.38130000      -1.94280000
H       -0.93850000      -2.45390000      -0.87060000
H       -0.85910000      -2.39190000       0.88380000
