19
Properties=species:S:1:pos:R:3 gdb_16224=T pbc="F F F"
C       -0.05760000       1.49600000       0.04960000
C        0.01460000       0.00030000       0.00650000
C        0.01340000      -0.77130000      -1.08490000
C        0.07690000      -2.24620000      -0.77170000
C        0.35830000      -2.27590000       0.75320000
C        0.07060000      -0.85180000       1.23740000
C        0.48620000      -0.33910000       2.56710000
N       -0.92610000      -0.68150000       2.32390000
H        0.86050000       1.93060000       0.46360000
H       -0.20520000       1.91250000      -0.94990000
H       -0.88400000       1.84980000       0.67980000
H       -0.05170000      -0.39360000      -2.10030000
H       -0.86970000      -2.74120000      -1.02840000
H        0.85440000      -2.76270000      -1.34620000
H       -0.25150000      -3.00190000       1.29460000
H        1.40970000      -2.52260000       0.93440000
H        1.00250000      -1.00250000       3.25720000
H        0.76390000       0.70790000       2.66140000
H       -1.46590000       0.16880000       2.17550000
