15
Properties=species:S:1:pos:R:3 gdb_27477=T pbc="F F F"
C        0.05190000       1.47290000      -0.01410000
C       -0.07740000      -0.01090000       0.04170000
C       -1.17800000      -0.72890000      -0.21000000
C       -1.16210000      -2.17780000      -0.11750000
N       -2.19480000      -2.89000000      -0.35200000
N        0.09970000      -2.67850000       0.25260000
C        1.24100000      -1.95820000       0.51480000
O        2.29210000      -2.44110000       0.82690000
O        1.11450000      -0.59620000       0.39690000
H        0.82060000       1.76040000      -0.73930000
H       -0.89610000       1.93250000      -0.29640000
H        0.36470000       1.86380000       0.96000000
H       -2.10650000      -0.25270000      -0.48820000
H       -2.00580000      -3.88740000      -0.24030000
H        0.21910000      -3.67710000       0.34580000
