18
Properties=species:S:1:pos:R:3 gdb_51638=T pbc="F F F"
O       -0.00710000       0.02730000      -0.18090000
C        0.03160000       1.22010000      -0.21520000
O        1.04370000       1.93260000       0.31230000
C        1.01810000       3.36140000       0.19020000
C        1.43200000       4.04430000       1.53530000
N        2.67770000       4.77030000       1.16390000
C        2.23610000       5.35360000      -0.16830000
C        2.17670000       3.88730000      -0.66530000
C        3.36010000       3.70750000       0.32050000
H       -0.75080000       1.85850000      -0.67120000
H        0.03470000       3.67310000      -0.17780000
H        0.68330000       4.74790000       1.90660000
H        1.63440000       3.29710000       2.30530000
H        1.31820000       5.94900000      -0.13300000
H        3.04490000       5.93490000      -0.61540000
H        2.19930000       3.59360000      -1.71580000
H        4.30910000       4.08760000      -0.06200000
H        3.49880000       2.74030000       0.80770000
