18
Properties=species:S:1:pos:R:3 gdb_57325=T pbc="F F F"
C       -0.02290000       1.52480000       0.16720000
C        0.02190000      -0.00890000       0.06270000
C        0.76150000      -0.61790000       1.25940000
N       -1.29990000      -0.63810000      -0.02540000
C        0.76750000      -0.45250000      -1.25940000
C        0.03770000      -0.00700000      -2.45370000
N       -0.57690000       0.34480000      -3.36590000
C        2.16010000       0.00780000      -1.30900000
N        3.25960000       0.36040000      -1.31170000
H        0.97980000       1.96180000       0.20850000
H       -0.55100000       1.96220000      -0.68600000
H       -0.55580000       1.81160000       1.07860000
H        0.26550000      -0.31940000       2.18850000
H        0.75140000      -1.71030000       1.20530000
H        1.79680000      -0.27250000       1.30890000
H       -1.76300000      -0.58160000       0.87640000
H       -1.88960000      -0.13990000      -0.68720000
H        0.76360000      -1.54860000      -1.26230000
