21
Properties=species:S:1:pos:R:3 gdb_58992=T pbc="F F F"
C       -0.04660000       1.55140000       0.02520000
C       -0.04400000       0.01030000       0.02990000
C        0.74820000      -0.53240000       1.23540000
C       -1.43660000      -0.53550000       0.00580000
C       -2.09060000      -1.30960000      -0.86620000
C       -3.46840000      -1.44760000      -0.19620000
C       -3.77630000       0.02790000       0.19950000
C       -2.53980000      -0.32580000       1.07810000
O       -3.09410000      -1.67660000       1.20670000
H        0.97760000       1.93840000       0.01610000
H       -0.56850000       1.94470000      -0.85220000
H       -0.54250000       1.94800000       0.91830000
H        0.45810000      -0.32950000      -0.88520000
H        1.77870000      -0.16270000       1.21570000
H        0.29770000      -0.21160000       2.18110000
H        0.77310000      -1.62550000       1.23090000
H       -1.76760000      -1.74270000      -1.80180000
H       -4.20790000      -2.14370000      -0.58950000
H       -3.68140000       0.80700000      -0.55990000
H       -4.69330000       0.12890000       0.78530000
H       -2.30550000       0.16060000       2.02450000
