23
Properties=species:S:1:pos:R:3 gdb_102499=T pbc="F F F"
C       -1.15980000       0.76060000       0.35570000
O        0.08000000       0.16510000       0.02230000
C        0.72340000      -0.54070000       1.06900000
C        0.12420000      -1.93900000       1.28380000
O       -1.15010000      -1.90510000       1.92070000
C        2.23440000      -0.57080000       0.72810000
C        2.50850000      -1.34720000      -0.56690000
C        2.77480000       0.86070000       0.62650000
O        2.83270000      -1.23460000       1.85010000
H       -1.05230000       1.45290000       1.20590000
H       -1.47980000       1.33120000      -0.52040000
H       -1.92040000       0.01580000       0.60950000
H        0.62280000       0.01930000       2.01580000
H       -0.04750000      -2.40700000       0.31020000
H        0.83590000      -2.55440000       1.84660000
H       -1.01420000      -1.61710000       2.82910000
H        1.93280000      -0.92720000      -1.39520000
H        3.57220000      -1.29130000      -0.82610000
H        2.24470000      -2.40200000      -0.45450000
H        2.62550000       1.38980000       1.57250000
H        3.84940000       0.84600000       0.40940000
H        2.27010000       1.41220000      -0.16890000
H        3.78220000      -1.26900000       1.69520000
