18
Properties=species:S:1:pos:R:3 gdb_17786=T pbc="F F F"
C        0.02390000       1.51840000       0.03320000
C       -0.14620000       0.02680000      -0.19480000
O        0.94640000      -0.43620000      -0.97640000
C        0.94640000      -1.81120000      -1.17940000
C        0.16840000      -2.46870000      -2.37100000
C        1.13520000      -1.78260000      -3.36390000
C        1.95820000      -2.38130000      -2.19780000
O        1.11600000      -3.59820000      -2.25540000
H        0.96210000       1.72120000       0.55710000
H        0.04140000       2.05350000      -0.92050000
H       -0.80270000       1.90800000       0.63470000
H       -0.17250000      -0.51360000       0.76510000
H       -1.09640000      -0.18180000      -0.71100000
H        0.87510000      -2.38530000      -0.24700000
H       -0.88850000      -2.71350000      -2.47960000
H        1.25210000      -2.29420000      -4.31990000
H        1.09440000      -0.69600000      -3.44680000
H        3.03520000      -2.51640000      -2.09840000
