21
Properties=species:S:1:pos:R:3 gdb_106412=T pbc="F F F"
C        0.03190000       1.52510000       0.06150000
C       -0.05970000      -0.00110000      -0.05120000
C       -1.47150000      -0.52720000      -0.03080000
C       -2.56390000      -0.34320000       1.08580000
C       -3.25460000      -1.23180000       0.00380000
C       -2.62690000      -0.28250000      -1.06180000
C       -1.92980000      -1.99700000      -0.06120000
C       -1.44940000      -3.22870000      -0.66590000
O       -1.49070000      -3.03800000       0.77440000
H        1.07390000       1.85790000       0.04430000
H       -0.48970000       2.01640000      -0.76650000
H       -0.41720000       1.88000000       0.99470000
H        0.42820000      -0.33220000      -0.97780000
H        0.49610000      -0.46900000       0.77150000
H       -2.36050000      -0.81190000       2.05080000
H       -2.96690000       0.66680000       1.19880000
H       -4.26660000      -1.63440000       0.02090000
H       -3.03530000       0.73040000      -1.08390000
H       -2.48630000      -0.68450000      -2.06920000
H       -2.15380000      -3.96530000      -1.04990000
H       -0.44790000      -3.28310000      -1.09070000
