19
Properties=species:S:1:pos:R:3 gdb_88742=T pbc="F F F"
C       -0.03970000       1.62150000       0.00310000
N       -0.01300000       0.16520000       0.02570000
C        1.24800000      -0.50140000      -0.26500000
C        0.66800000      -0.53940000       1.11080000
C        1.33860000       0.17190000       2.24460000
C        0.70160000       0.25860000       3.60810000
N        1.78740000      -0.65860000       3.35540000
C        3.02960000      -0.55490000       3.96350000
O        3.20990000      -0.26970000       5.12090000
H        0.91220000       2.10590000       0.27200000
H       -0.30310000       1.94650000      -1.00810000
H       -0.81440000       1.98180000       0.68690000
H        1.19810000      -1.37160000      -0.91410000
H        2.13240000       0.12090000      -0.40710000
H        0.15570000      -1.44440000       1.43450000
H        1.99200000       1.00050000       1.97950000
H        0.92070000       1.12430000       4.22740000
H       -0.27330000      -0.19450000       3.76550000
H        3.84640000      -0.83100000       3.26930000
