17
Properties=species:S:1:pos:R:3 gdb_16305=T pbc="F F F"
C       -0.17790000       1.49950000      -0.12170000
N        0.08550000       0.07560000       0.00050000
C        1.17130000      -0.52490000      -0.82560000
C        1.81180000      -1.12620000       0.42750000
C        2.15290000      -0.05440000       1.40790000
C        0.69350000      -0.41960000       1.23240000
C       -0.11690000      -1.01040000       2.31210000
O        0.33400000      -1.46440000       3.33840000
H        0.71050000       2.13890000       0.02060000
H       -0.58890000       1.70770000      -1.11480000
H       -0.92860000       1.79200000       0.61930000
H        0.78410000      -1.25570000      -1.54200000
H        1.79970000       0.20130000      -1.35890000
H        2.12120000      -2.15520000       0.55130000
H        2.57040000      -0.39660000       2.34860000
H        2.50590000       0.91350000       1.06300000
H       -1.20640000      -1.02980000       2.08660000
