17
Properties=species:S:1:pos:R:3 gdb_76879=T pbc="F F F"
O       -0.02180000       1.46450000      -0.00170000
C       -0.01740000       0.05670000       0.04510000
C        0.55280000      -0.56630000       1.36950000
O       -0.08590000      -1.85030000       1.33980000
C       -1.43190000      -1.35740000       1.39250000
C       -1.38210000      -0.36300000       2.54090000
C       -0.14410000       0.13010000       2.52680000
C       -1.47310000      -0.52420000       0.06160000
O       -2.43950000       0.49990000       0.02440000
H        0.86050000       1.75270000      -0.25290000
H        0.52910000      -0.36530000      -0.80710000
H        1.63690000      -0.67360000       1.41340000
H       -2.14370000      -2.18070000       1.45750000
H       -2.22300000      -0.06120000       3.14830000
H        0.27080000       0.93230000       3.11970000
H       -1.59540000      -1.21390000      -0.78260000
H       -3.28460000       0.09790000      -0.19680000
