18
Properties=species:S:1:pos:R:3 gdb_43953=T pbc="F F F"
O       -0.29650000      -0.05960000      -0.41020000
C       -0.12200000       1.08570000      -0.13610000
N       -1.04720000       2.16930000       0.05990000
C       -0.01290000       2.90460000       0.81940000
C        0.95330000       4.14020000       0.74370000
C        2.03060000       2.97680000       0.99820000
C        1.70540000       2.54880000       2.43030000
C        0.15610000       2.46780000       2.29850000
C        1.05050000       2.13740000       0.07360000
H       -1.98160000       1.98490000       0.41060000
H        1.03870000       4.58690000      -0.24660000
H        0.87070000       4.91100000       1.51640000
H        3.07450000       3.11800000       0.71990000
H        2.15380000       1.58800000       2.69360000
H        2.03950000       3.29010000       3.16210000
H       -0.37450000       3.13440000       2.98470000
H       -0.21920000       1.45280000       2.45940000
H        1.15010000       2.55900000      -0.93230000
