11
Properties=species:S:1:pos:R:3 gdb_129321=T pbc="F F F"
N       -0.05820000       1.26030000       0.36850000
C       -0.03290000       0.05320000      -0.00220000
O        1.10870000      -0.56950000      -0.45190000
N        1.13290000      -1.96430000      -0.87910000
N        0.09150000      -2.61190000      -0.83630000
C       -1.12200000      -2.07730000      -0.39660000
C       -1.22650000      -0.79820000       0.01400000
C       -2.46640000      -0.25830000       0.46130000
N       -3.49570000       0.13320000       0.81550000
H        0.86010000       1.69870000       0.29060000
H       -1.95410000      -2.76770000      -0.41470000
