19
Properties=species:S:1:pos:R:3 gdb_116912=T pbc="F F F"
C       -0.26130000       1.38980000      -0.23840000
O       -0.32540000      -0.01610000      -0.29550000
C        0.87450000      -0.58100000      -0.79150000
C        0.77480000      -2.03130000      -0.83880000
C        0.72610000      -3.23420000      -0.89750000
C        0.64680000      -4.67060000      -0.90740000
O        1.15460000      -5.31720000       0.23190000
C       -0.51820000      -5.33690000      -1.62540000
C        0.87640000      -5.43080000      -2.18860000
H        0.54510000       1.73740000       0.42730000
H       -0.09770000       1.83400000      -1.23360000
H       -1.21860000       1.74150000       0.15250000
H        1.09260000      -0.19020000      -1.80130000
H        1.72760000      -0.28800000      -0.15420000
H        0.65170000      -5.00110000       0.99120000
H       -0.92100000      -6.21800000      -1.13900000
H       -1.24190000      -4.70270000      -2.12330000
H        1.12070000      -4.86300000      -3.07780000
H        1.40200000      -6.37190000      -2.07580000
