15
Properties=species:S:1:pos:R:3 gdb_25985=T pbc="F F F"
N       -0.11460000       1.37090000       0.13350000
C        0.08870000       0.00750000       0.06050000
O        1.20490000      -0.49190000       0.05150000
N       -1.06950000      -0.73550000       0.04240000
C       -1.12160000      -2.12570000       0.01420000
N       -2.24310000      -2.80620000       0.01580000
C       -1.83820000      -4.12770000      -0.01940000
C       -0.47500000      -4.21960000      -0.04300000
N       -0.01930000      -2.91240000      -0.02140000
H        0.71980000       1.90630000      -0.04880000
H       -0.96200000       1.76350000      -0.24600000
H       -1.97110000      -0.29700000       0.14480000
H       -2.55980000      -4.92970000      -0.02650000
H        0.20340000      -5.05500000      -0.07290000
H        0.91840000      -2.53780000      -0.01210000
