16
Properties=species:S:1:pos:R:3 gdb_128245=T pbc="F F F"
C        0.06840000       1.37570000       0.16020000
N       -0.02060000      -0.04370000      -0.07220000
C        0.57740000      -0.66200000      -1.12820000
C        1.14250000      -0.04670000      -2.19850000
O        1.69740000      -0.70420000      -3.25680000
N        1.73050000      -2.06880000      -3.29200000
C        1.22180000      -2.69780000      -2.28330000
C        0.60610000      -2.12020000      -1.10050000
N        0.11930000      -2.74730000      -0.08510000
H        1.10850000       1.72870000       0.23990000
H       -0.41520000       1.93750000      -0.64970000
H       -0.45020000       1.61970000       1.08890000
H       -0.21940000      -0.67220000       0.69290000
H        1.21000000       1.02190000      -2.34550000
H        1.28340000      -3.78030000      -2.37050000
H        0.21300000      -3.75800000      -0.19290000
