16
Properties=species:S:1:pos:R:3 gdb_18882=T pbc="F F F"
C       -0.03690000       1.54420000       0.07300000
C        1.51100000       1.50150000      -0.00580000
C        2.10700000       1.06770000       1.35610000
C        1.76280000      -0.43460000       1.31110000
O        0.34500000      -0.57640000       1.25690000
C       -0.01190000       0.00340000      -0.00590000
C        1.39770000       0.08360000      -0.69450000
O        2.20980000      -0.81980000       0.02160000
H       -0.49200000       1.98230000       0.96450000
H       -0.48630000       1.98330000      -0.82320000
H        2.04570000       2.31110000      -0.50100000
H        3.19170000       1.20100000       1.39020000
H        1.65360000       1.57880000       2.20830000
H        2.16980000      -1.08640000       2.08250000
H       -0.84880000      -0.55330000      -0.42870000
H        1.50130000      -0.02780000      -1.77010000
