18
Properties=species:S:1:pos:R:3 gdb_67225=T pbc="F F F"
C       -0.00920000       1.56830000       0.09130000
C       -0.01970000       0.06930000       0.03880000
C        0.64360000      -0.74020000      -1.15560000
C        1.89200000      -0.79550000      -0.26070000
N        0.95680000      -0.78410000       0.92030000
C       -0.07040000      -1.90870000       0.65330000
C        0.06110000      -2.14540000      -0.87800000
C       -1.12470000      -0.80150000       0.62540000
O       -2.23590000      -0.63000000       1.02740000
H        0.96530000       1.98110000      -0.18760000
H       -0.75480000       1.96970000      -0.60310000
H       -0.25930000       1.91850000       1.09640000
H        0.65110000      -0.37390000      -2.18330000
H        2.55730000      -1.66140000      -0.33800000
H        2.48570000       0.12080000      -0.24550000
H       -0.08720000      -2.75030000       1.34080000
H       -0.90470000      -2.34150000      -1.35250000
H        0.75310000      -2.94660000      -1.15000000
