15
Properties=species:S:1:pos:R:3 gdb_42756=T pbc="F F F"
O       -0.04690000      -0.04130000      -0.08720000
C       -0.04070000       1.14010000       0.04750000
C       -0.96760000       2.37740000       0.07050000
C       -0.00690000       2.98640000       1.12680000
C        0.92760000       2.35860000       0.05530000
C        2.43010000       2.46100000      -0.06230000
C        2.92220000       1.90270000      -1.32180000
N        3.28870000       1.47290000      -2.32920000
N       -0.02150000       2.96900000      -0.97460000
H       -2.04680000       2.47740000      -0.00880000
H        0.00170000       4.07770000       1.11590000
H       -0.00260000       2.55570000       2.12870000
H        2.73880000       3.51050000       0.00170000
H        2.89870000       1.93030000       0.77390000
H       -0.02840000       2.41850000      -1.83910000
