15
Properties=species:S:1:pos:R:3 gdb_1172=T pbc="F F F"
C        0.01320000       1.52540000       0.04300000
C       -0.07280000      -0.00690000      -0.02260000
O        0.42570000      -0.59120000       1.19100000
C       -1.54350000      -0.48430000      -0.06930000
O       -2.24410000      -0.08660000       1.08690000
C        0.65750000      -0.52570000      -1.18510000
C        1.25640000      -0.95030000      -2.13720000
H        1.04840000       1.84600000       0.19610000
H       -0.34270000       1.97250000      -0.88940000
H       -0.60550000       1.88230000       0.86880000
H        1.34130000      -0.31560000       1.30390000
H       -2.04770000      -0.03790000      -0.93050000
H       -1.54360000      -1.57630000      -0.19440000
H       -1.72010000      -0.40290000       1.83320000
H        1.78490000      -1.32850000      -2.97750000
