19
Properties=species:S:1:pos:R:3 gdb_74986=T pbc="F F F"
C       -0.27640000       1.52880000       0.00580000
C       -0.09660000       0.04760000      -0.05910000
C       -0.12380000      -0.77050000      -1.12400000
C        0.11210000      -2.21380000      -0.78530000
C        1.56980000      -2.74060000      -1.02760000
C        1.85430000      -2.62330000       0.49440000
C        0.36560000      -2.19830000       0.74520000
C        0.17910000      -0.74730000       1.17280000
O        0.27250000      -0.30320000       2.29630000
H        0.60570000       2.00420000       0.44890000
H       -0.45220000       1.96320000      -0.98140000
H       -1.11880000       1.78450000       0.65770000
H       -0.27170000      -0.44030000      -2.14890000
H       -0.67700000      -2.86690000      -1.16800000
H        1.59580000      -3.76780000      -1.39810000
H        2.18690000      -2.12130000      -1.68250000
H        2.13300000      -3.56010000       0.97970000
H        2.58610000      -1.86340000       0.77680000
H       -0.20480000      -2.88240000       1.37380000
