16
Properties=species:S:1:pos:R:3 gdb_15529=T pbc="F F F"
C       -0.12590000       1.51670000       0.02180000
C       -0.01340000       0.02860000      -0.01690000
C        0.07440000      -0.78490000      -1.06570000
C        0.15680000      -2.22800000      -0.66190000
N        0.30050000      -2.16050000       0.80140000
C       -0.01640000      -0.80660000       1.26020000
C        0.96990000      -0.32190000       2.25150000
N        1.72130000       0.08070000       3.03180000
H        0.69200000       1.95910000       0.60220000
H       -0.10390000       1.94000000      -0.98500000
H       -1.05990000       1.83190000       0.50440000
H        0.07890000      -0.46780000      -2.10170000
H       -0.74330000      -2.78090000      -0.97940000
H        1.01580000      -2.74100000      -1.11790000
H       -0.22880000      -2.86760000       1.29040000
H       -1.00320000      -0.72770000       1.75140000
