18
Properties=species:S:1:pos:R:3 gdb_50339=T pbc="F F F"
O       -0.04940000       0.00030000       0.74810000
C        0.02770000       1.21020000       0.66210000
N        1.07860000       1.87590000       0.14180000
C        2.31160000       1.37630000      -0.46610000
C        2.76320000       2.85250000      -0.68920000
C        2.85280000       3.36330000      -2.13990000
C        1.46590000       3.90190000      -2.41180000
C        0.67010000       3.87950000      -1.34270000
C        1.36390000       3.29580000      -0.13750000
H       -0.76390000       1.90180000       1.02030000
H        2.92610000       0.78350000       0.21780000
H        2.14430000       0.79740000      -1.38170000
H        3.61790000       3.13540000      -0.07610000
H        3.61180000       4.14780000      -2.25410000
H        3.13060000       2.56730000      -2.84260000
H        1.17590000       4.27130000      -3.39000000
H       -0.35780000       4.22320000      -1.31680000
H        1.32270000       3.93120000       0.75380000
