23
Properties=species:S:1:pos:R:3 gdb_119093=T pbc="F F F"
C        0.11410000       1.44160000       0.27400000
O       -0.01000000       0.04940000       0.08660000
C        0.76430000      -0.44380000      -0.99930000
C        0.58900000      -1.95010000      -1.11510000
C        1.01860000      -2.66770000       0.17400000
O        0.12650000      -2.47440000       1.25240000
C       -0.78910000      -2.46070000      -1.63560000
C       -0.04580000      -3.37600000      -2.64630000
C        1.26090000      -2.57990000      -2.37480000
H        1.15190000       1.73000000       0.50010000
H       -0.21170000       1.99550000      -0.61930000
H       -0.52450000       1.71870000       1.11570000
H        0.44790000       0.05180000      -1.93200000
H        1.82930000      -0.19750000      -0.84140000
H        1.05850000      -3.74910000      -0.00200000
H        2.04520000      -2.34880000       0.43160000
H       -0.05000000      -1.52460000       1.28480000
H       -1.42470000      -2.93810000      -0.88790000
H       -1.36320000      -1.67080000      -2.12850000
H        0.01770000      -4.41300000      -2.30750000
H       -0.41180000      -3.37840000      -3.67530000
H        1.46580000      -1.83610000      -3.15130000
H        2.17680000      -3.15300000      -2.20220000
