17
Properties=species:S:1:pos:R:3 gdb_66426=T pbc="F F F"
C       -0.03830000       1.49170000       0.01260000
C       -0.00170000      -0.00250000       0.00270000
C        0.89140000      -0.96960000      -0.76640000
C        0.88910000      -0.97970000       0.76170000
C       -0.26800000      -2.03940000       0.75720000
O       -0.69540000      -2.94800000       1.68830000
C       -1.15120000      -1.05980000      -0.00610000
C       -0.26560000      -2.02920000      -0.77950000
O       -0.69010000      -2.92540000      -1.72390000
H        0.97780000       1.90170000       0.01670000
H       -0.55340000       1.88520000      -0.87150000
H       -0.55580000       1.87340000       0.90040000
H        1.71640000      -0.76610000      -1.43880000
H        1.71200000      -0.78520000       1.43920000
H       -0.08810000      -3.69720000       1.69160000
H       -2.23010000      -0.98240000      -0.00720000
H       -0.08230000      -3.67410000      -1.73580000
