18
Properties=species:S:1:pos:R:3 gdb_69078=T pbc="F F F"
C       -0.05920000       1.50790000       0.19500000
C        0.07950000       0.01370000       0.06740000
N       -0.71710000      -0.88490000       0.91200000
C        0.74940000      -0.90920000       1.09460000
C        1.47200000      -2.01320000       0.33570000
C        1.14940000      -1.71490000      -1.11240000
C        0.41930000      -0.60870000      -1.25280000
C        1.29940000      -0.33810000       2.33700000
O        0.66490000       0.35140000       3.10740000
H        0.77130000       2.02310000      -0.29780000
H       -0.98820000       1.83920000      -0.28320000
H       -0.08750000       1.81210000       1.24410000
H       -1.08280000      -0.34340000       1.69960000
H        2.55380000      -1.98170000       0.52780000
H        1.12180000      -3.00800000       0.63620000
H        1.46920000      -2.36220000      -1.92070000
H        0.07840000      -0.18510000      -2.19030000
H        2.36710000      -0.57940000       2.53000000
