20
Properties=species:S:1:pos:R:3 gdb_119296=T pbc="F F F"
C       -0.16970000       1.31160000       0.26670000
O       -0.05970000      -0.09260000       0.20980000
C       -1.27350000      -0.73170000      -0.09050000
C       -1.01820000      -2.23740000      -0.19080000
C       -0.61990000      -2.87220000       1.18540000
C       -2.09080000      -3.32900000       1.37660000
C       -2.35070000      -3.06130000      -0.13020000
C       -0.13660000      -2.53550000      -1.31350000
N        0.54360000      -2.80920000      -2.20770000
H        0.82090000       1.70460000       0.50510000
H       -0.49870000       1.73230000      -0.69560000
H       -0.87890000       1.63330000       1.04550000
H       -2.02190000      -0.54430000       0.69850000
H       -1.69430000      -0.36090000      -1.03980000
H        0.06640000      -3.71100000       1.05740000
H       -0.19460000      -2.17300000       1.90650000
H       -2.24390000      -4.35280000       1.72140000
H       -2.66010000      -2.66070000       2.02690000
H       -3.25710000      -2.51620000      -0.40580000
H       -2.28850000      -3.96630000      -0.73640000
