17
Properties=species:S:1:pos:R:3 gdb_34462=T pbc="F F F"
N        0.08550000      -1.06140000      -0.05780000
C        0.03500000       0.09460000      -0.02450000
C       -0.03940000       1.52380000       0.02200000
C       -1.21590000       2.20990000       0.72600000
C       -1.37240000       3.50780000      -0.12280000
N       -0.08820000       3.70310000      -0.82420000
C        1.03380000       3.75380000       0.18930000
C        1.30790000       2.27790000      -0.05070000
C        0.35220000       2.33620000      -1.20470000
H       -2.10860000       1.58070000       0.70030000
H       -0.99220000       2.42040000       1.77580000
H       -2.15720000       3.38130000      -0.87510000
H       -1.61290000       4.39050000       0.47540000
H        1.84110000       4.39440000      -0.17450000
H        0.74000000       4.07690000       1.19370000
H        2.24600000       1.74480000       0.03940000
H        0.38400000       1.97160000      -2.22260000
