14
Properties=species:S:1:pos:R:3 gdb_20429=T pbc="F F F"
C       -0.11180000       1.36580000      -0.24420000
C        1.28750000       0.91880000       0.00940000
N        0.18580000      -0.03300000       0.08070000
C       -0.18860000      -0.53740000       1.32280000
N        0.68570000      -0.73470000       2.28680000
O       -0.03730000      -1.32520000       3.32630000
C       -1.31710000      -1.44860000       2.94830000
C       -1.49760000      -0.97490000       1.69300000
H       -0.59080000       1.96900000       0.52300000
H       -0.46090000       1.53910000      -1.25740000
H        1.96840000       0.76900000      -0.82240000
H        1.75100000       1.21260000       0.94590000
H       -1.97970000      -1.89480000       3.67430000
H       -2.39890000      -0.94340000       1.10520000
