19
Properties=species:S:1:pos:R:3 gdb_35962=T pbc="F F F"
C        0.17850000      -1.22770000       0.07030000
C        0.11650000      -0.02900000       0.03210000
C        0.00220000       1.42860000       0.00230000
C       -0.83110000       1.94190000       1.19710000
C       -1.36830000       3.38760000       1.07930000
C       -0.57520000       4.33320000       0.16600000
O        0.83260000       4.25600000       0.33560000
C        1.45380000       3.27460000      -0.44550000
O        1.32740000       1.96570000       0.03860000
H        0.24410000      -2.28740000       0.09690000
H       -0.47930000       1.71560000      -0.94820000
H       -1.66950000       1.25760000       1.35790000
H       -0.17830000       1.85120000       2.06990000
H       -2.39900000       3.37540000       0.70320000
H       -1.41720000       3.81610000       2.08560000
H       -0.82410000       4.14130000      -0.88960000
H       -0.85970000       5.36890000       0.37860000
H        1.07080000       3.33020000      -1.48190000
H        2.52420000       3.48980000      -0.42540000
