19
Properties=species:S:1:pos:R:3 gdb_54394=T pbc="F F F"
C       -0.02160000       1.48020000       0.03260000
C        0.06600000      -0.03580000       0.08690000
O        1.12970000      -0.61490000       0.11400000
C       -1.23430000      -0.79310000       0.07710000
C       -2.10170000      -0.91520000      -1.24100000
C       -2.73370000      -2.09200000      -0.42370000
C       -1.28200000      -2.35670000       0.10820000
C       -3.32450000      -1.31470000       0.76050000
C       -2.35560000      -0.45540000       1.08440000
H        0.97630000       1.90200000      -0.09350000
H       -0.67330000       1.80440000      -0.78580000
H       -0.46250000       1.86660000       0.95880000
H       -2.74710000      -0.07120000      -1.49420000
H       -1.51730000      -1.24490000      -2.10560000
H       -3.33420000      -2.86750000      -0.89720000
H       -0.61520000      -2.81560000      -0.62610000
H       -1.18180000      -2.83640000       1.08330000
H       -4.29690000      -1.46330000       1.20830000
H       -2.31040000       0.28960000       1.86550000
