18
Properties=species:S:1:pos:R:3 gdb_99393=T pbc="F F F"
O        0.29500000       1.14770000       0.00750000
C       -0.14510000      -0.12690000      -0.37570000
C       -1.42030000      -0.48770000       0.37760000
O       -2.01370000       0.30520000       1.06650000
C       -1.88680000      -1.92610000       0.19570000
C       -3.36790000      -2.09940000       0.55000000
N       -3.79460000      -3.49220000       0.53730000
C       -3.93720000      -4.19450000      -0.61420000
O       -3.68770000      -3.76100000      -1.72120000
H        1.06110000       1.37280000      -0.52810000
H       -0.38620000      -0.19210000      -1.45190000
H        0.60080000      -0.91760000      -0.18020000
H       -1.70530000      -2.26680000      -0.82860000
H       -1.26760000      -2.56000000       0.84610000
H       -3.56180000      -1.68460000       1.54000000
H       -3.97630000      -1.53770000      -0.16560000
H       -4.03980000      -3.93900000       1.40550000
H       -4.31060000      -5.22260000      -0.43510000
