15
Properties=species:S:1:pos:R:3 gdb_11122=T pbc="F F F"
O        0.24880000       1.30660000       0.35740000
C        0.17230000      -0.08250000       0.12340000
C       -1.21770000      -0.47420000      -0.34270000
C       -1.61460000      -1.96260000      -0.26280000
C       -2.62190000      -1.49080000       0.81850000
O       -2.20090000      -0.12050000       0.67960000
C       -4.04160000      -1.67880000       0.50550000
N       -5.15710000      -1.84580000       0.25470000
H       -0.45590000       1.51900000       0.98150000
H        0.90830000      -0.32170000      -0.65280000
H        0.43180000      -0.66410000       1.02400000
H       -1.45860000       0.02970000      -1.28490000
H       -2.06620000      -2.38250000      -1.16000000
H       -0.83950000      -2.63380000       0.11030000
H       -2.43410000      -1.87240000       1.82870000
