11
Properties=species:S:1:pos:R:3 gdb_130918=T pbc="F F F"
O       -0.03470000      -0.01920000      -0.26860000
C        0.01870000       1.18000000      -0.21500000
C        1.30410000       1.95430000      -0.04950000
N        2.39750000       1.26630000       0.03870000
O        3.58020000       1.91460000       0.18840000
N        3.69490000       3.29430000       0.25390000
C        2.61620000       3.98760000       0.16750000
C        1.27300000       3.42290000       0.00470000
O        0.26100000       4.09440000      -0.07500000
H       -0.87210000       1.82970000      -0.28240000
H        2.74300000       5.06570000       0.22210000
