21
Properties=species:S:1:pos:R:3 gdb_63412=T pbc="F F F"
C        0.07590000       1.54310000      -0.12650000
C       -0.01520000       0.01340000       0.00030000
C       -1.49350000      -0.40800000       0.13590000
C        0.67600000      -0.71230000      -1.19670000
C        1.47660000      -1.90710000      -0.60560000
C        2.85000000      -2.03390000      -1.23760000
O        3.30800000      -3.03920000      -1.71380000
C        1.56640000      -1.54220000       0.86570000
C        0.78230000      -0.51370000       1.17680000
H        1.11780000       1.87300000      -0.18860000
H       -0.44470000       1.89160000      -1.02540000
H       -0.38390000       2.03920000       0.73550000
H       -2.07930000      -0.04600000      -0.71640000
H       -1.59170000      -1.49720000       0.17990000
H       -1.94010000       0.00480000       1.04700000
H       -0.03640000      -1.03590000      -1.95950000
H        1.37230000      -0.01820000      -1.68310000
H        0.97240000      -2.87070000      -0.74550000
H        3.43530000      -1.08290000      -1.22000000
H        2.18290000      -2.10170000       1.56070000
H        0.65910000      -0.10620000       2.17580000
