15
Properties=species:S:1:pos:R:3 gdb_6875=T pbc="F F F"
C       -0.05730000       1.58040000      -0.05020000
C        0.00870000       0.07450000       0.00120000
O       -1.16080000      -0.59910000      -0.37070000
C        1.29780000      -0.64790000      -0.26060000
O        2.42160000       0.11760000      -0.52540000
C        0.69590000      -0.64340000       1.15920000
C        1.36820000       0.08630000       2.19020000
N        1.94030000       0.66250000       3.01510000
H        0.88670000       2.03030000       0.25840000
H       -0.26610000       1.90840000      -1.07520000
H       -0.85930000       1.94310000       0.59840000
H       -1.34040000      -0.39090000      -1.29520000
H        1.22360000      -1.60160000      -0.78240000
H        3.16370000      -0.22130000      -0.01160000
H        0.21380000      -1.56140000       1.47670000
