16
Properties=species:S:1:pos:R:3 gdb_116661=T pbc="F F F"
C        0.51620000       1.04920000      -0.53560000
O       -0.11900000       0.32500000       0.51550000
C        0.59730000      -0.67630000       1.04530000
N        0.11970000      -1.34890000       2.00130000
C        0.88340000      -2.45810000       2.55300000
C        0.02610000      -3.73110000       2.35060000
O       -0.26730000      -4.49230000       3.22700000
C        2.20890000      -2.72140000       1.98410000
C        3.27530000      -2.96740000       1.48400000
H        0.76400000       0.39410000      -1.37870000
H       -0.20180000       1.80080000      -0.86430000
H        1.42540000       1.54900000      -0.18230000
H        1.58450000      -0.83610000       0.59390000
H        0.96770000      -2.31790000       3.63650000
H       -0.29830000      -3.86680000       1.29650000
H        4.22810000      -3.18840000       1.06890000
