23
Properties=species:S:1:pos:R:3 gdb_105363=T pbc="F F F"
C        0.73930000      -0.18730000       1.27420000
C        0.08330000      -0.20700000      -0.11060000
C       -1.37980000      -0.61110000      -0.06450000
C       -2.02400000      -1.26300000      -1.26120000
C       -1.74100000      -2.06540000      -0.00570000
O       -2.18560000       0.20690000       0.75480000
C       -2.53320000       1.44740000       0.20910000
C       -3.87720000       1.62140000      -0.45160000
C       -3.60910000       2.19360000       0.92760000
H        1.78330000       0.13450000       1.21130000
H        0.20890000       0.49520000       1.94350000
H        0.71830000      -1.18180000       1.73190000
H        0.18000000       0.77990000      -0.58180000
H        0.61240000      -0.90530000      -0.76940000
H       -3.05710000      -1.01740000      -1.47230000
H       -1.41460000      -1.44090000      -2.14110000
H       -0.94020000      -2.79710000      -0.02270000
H       -2.58880000      -2.33060000       0.61500000
H       -1.69890000       2.02100000      -0.18980000
H       -3.96160000       2.29770000      -1.29540000
H       -4.52050000       0.75050000      -0.49910000
H       -4.06630000       1.68340000       1.76790000
H       -3.50960000       3.26660000       1.04560000
