10
Properties=species:S:1:pos:R:3 gdb_21393=T pbc="F F F"
N        0.02140000       1.34100000       0.00970000
N        1.31270000       1.80170000      -0.00040000
C        2.07430000       0.74100000      -0.01400000
N        1.29590000      -0.39510000      -0.01260000
N        1.33190000      -1.76180000      -0.02040000
N        0.08220000      -2.11520000      -0.01110000
N       -0.79450000      -1.07020000       0.00410000
C       -0.00430000      -0.01230000       0.00240000
H       -0.74310000       1.99260000       0.02230000
H        3.15020000       0.75290000      -0.02450000
