16
Properties=species:S:1:pos:R:3 gdb_69199=T pbc="F F F"
C       -0.02940000       1.52810000       0.08290000
C        0.10000000       0.03860000       0.01180000
N       -0.79610000      -0.88900000       0.71110000
C        0.67560000      -0.92720000       1.01980000
C        1.28370000      -1.73440000      -0.09540000
O        2.08950000      -2.60770000      -0.16500000
C        0.64270000      -0.77510000      -1.18590000
C       -0.33910000      -1.34890000      -2.17330000
O       -0.06800000      -1.58060000      -3.32530000
H        0.88960000       2.01720000      -0.25460000
H       -0.84930000       1.88130000      -0.55210000
H       -0.23230000       1.85450000       1.10840000
H       -1.22910000      -0.38840000       1.48810000
H        1.03040000      -0.78020000       2.03200000
H        1.46530000      -0.28840000      -1.71830000
H       -1.34210000      -1.56140000      -1.75230000
