19
Properties=species:S:1:pos:R:3 gdb_119344=T pbc="F F F"
C       -0.07610000       1.44700000       0.18360000
O       -0.01060000       0.04170000       0.21620000
C       -1.24600000      -0.56920000      -0.09610000
C       -1.08480000      -2.04520000      -0.09390000
C       -2.08760000      -3.19640000       0.01750000
C       -1.53740000      -3.86310000      -1.24380000
C       -0.23220000      -3.09120000      -0.92100000
O        0.23690000      -3.71050000       0.30910000
C       -0.86870000      -3.08440000       0.95280000
H        0.91840000       1.82610000       0.43020000
H       -0.36280000       1.82210000      -0.81230000
H       -0.79850000       1.84140000       0.91650000
H       -2.02000000      -0.28530000       0.63970000
H       -1.60470000      -0.21880000      -1.08080000
H       -3.10700000      -3.15540000       0.38070000
H       -1.45960000      -4.95410000      -1.28180000
H       -2.02480000      -3.47880000      -2.14360000
H        0.55800000      -2.90670000      -1.64510000
H       -0.90820000      -3.05400000       2.03350000
