21
Properties=species:S:1:pos:R:3 gdb_80567=T pbc="F F F"
C       -0.05510000       1.57080000       0.01030000
C        0.04810000       0.06540000       0.08410000
C        1.35410000      -0.67810000      -0.16020000
O        2.52740000       0.08610000      -0.11510000
C        2.99680000       0.10880000       1.24860000
C        3.87250000       1.33160000       1.44710000
C        1.71830000       0.03400000       2.11480000
C        0.73230000      -0.70400000       1.20270000
O        0.15040000      -1.88600000       1.66860000
H        0.91610000       2.04140000       0.17770000
H       -0.39790000       1.87970000      -0.98270000
H       -0.76450000       1.96780000       0.74500000
H       -0.81220000      -0.47750000      -0.30310000
H        1.38290000      -1.55040000      -0.80610000
H        3.59190000      -0.80200000       1.42160000
H        3.29700000       2.25110000       1.30000000
H        4.28710000       1.34120000       2.46000000
H        4.70320000       1.32880000       0.73590000
H        1.87620000      -0.54550000       3.02740000
H        1.37420000       1.03490000       2.39880000
H       -0.64800000      -1.65310000       2.15480000
