16
Properties=species:S:1:pos:R:3 gdb_31312=T pbc="F F F"
O        0.08240000       1.25410000       0.63160000
C       -0.00580000       0.09090000      -0.18690000
C       -1.39050000      -0.46030000      -0.08550000
C       -1.73130000      -1.80270000       0.03820000
N       -3.11180000      -1.87240000       0.06660000
C       -3.64130000      -0.61760000      -0.02560000
C       -2.60000000       0.27870000      -0.12440000
C       -0.92460000      -2.95270000       0.12610000
C       -0.24110000      -3.94380000       0.20320000
H        0.93820000       1.66170000       0.46700000
H        0.22170000       0.34560000      -1.23580000
H        0.71740000      -0.67910000       0.12080000
H       -3.62980000      -2.72910000       0.15600000
H       -4.70830000      -0.46310000      -0.00920000
H       -2.68350000       1.35120000      -0.19690000
H        0.36780000      -4.81040000       0.27330000
