20
Properties=species:S:1:pos:R:3 gdb_98217=T pbc="F F F"
C       -1.95580000       1.91760000      -0.07850000
C       -2.45100000       0.47780000      -0.20670000
C       -1.35210000      -0.54720000      -0.01350000
N       -0.18100000      -0.13710000       0.28230000
N       -1.66220000      -1.92780000      -0.19090000
C       -0.53290000      -2.85120000      -0.27890000
C       -2.97120000      -2.43750000      -0.20560000
N       -3.05580000      -3.81050000      -0.01160000
O       -3.96790000      -1.77590000      -0.40970000
H       -2.79330000       2.60630000      -0.22780000
H       -1.52130000       2.10370000       0.90610000
H       -1.18400000       2.14130000      -0.81890000
H       -3.24980000       0.27830000       0.51360000
H       -2.92230000       0.30730000      -1.17850000
H        0.48950000      -0.88800000       0.42620000
H       -0.11520000      -3.11560000       0.70250000
H       -0.84900000      -3.75960000      -0.78900000
H        0.25980000      -2.39390000      -0.87570000
H       -2.40540000      -4.26250000       0.61210000
H       -4.01480000      -4.10210000       0.10570000
