13
Properties=species:S:1:pos:R:3 gdb_130173=T pbc="F F F"
N       -0.05020000       1.38680000       0.16660000
C        0.05020000       0.00970000       0.04410000
N       -1.03360000      -0.75540000       0.01710000
N       -0.58020000      -2.06940000      -0.01910000
C        0.75680000      -2.08040000      -0.02990000
C        1.23590000      -0.78710000       0.01090000
C        2.64040000      -1.00030000       0.00720000
N        2.95610000      -2.27290000      -0.03460000
O        1.70950000      -3.00330000      -0.05900000
H        0.63000000       1.90030000      -0.37620000
H       -0.98990000       1.71740000      -0.01070000
H       -1.24390000      -2.82210000      -0.02610000
H        3.45510000      -0.28950000       0.03490000
