13
Properties=species:S:1:pos:R:3 gdb_7024=T pbc="F F F"
O       -0.50780000       0.16780000       0.00810000
C       -0.14320000       1.30860000       0.00930000
N        1.17630000       1.76130000      -0.00090000
C        2.35090000       0.98950000      -0.01470000
O        2.36800000      -0.20780000      -0.02050000
C        3.60730000       1.88440000      -0.02140000
C        4.85280000       1.14000000      -0.03820000
C        5.89190000       0.54010000      -0.05220000
H       -0.83740000       2.17430000       0.01900000
H        1.28690000       2.76540000       0.00230000
H        3.54770000       2.55090000      -0.89330000
H        3.56460000       2.53950000       0.86010000
H        6.80420000      -0.00350000      -0.06470000
