17
Properties=species:S:1:pos:R:3 gdb_22762=T pbc="F F F"
C       -0.85820000       1.19950000       0.31810000
C       -0.09460000      -0.06760000      -0.04940000
C        0.88390000      -0.01770000      -1.27030000
C        2.02320000      -0.65370000      -0.39280000
C        3.31000000       0.02350000      -0.38600000
N        4.31930000       0.58630000      -0.41630000
C        1.09340000      -0.45750000       0.80860000
N        1.22050000      -0.51680000       2.06440000
O        2.51280000      -0.89970000       2.43410000
H       -0.17900000       2.05240000       0.41270000
H       -1.60350000       1.43660000      -0.44780000
H       -1.37620000       1.07490000       1.27310000
H       -0.79260000      -0.90870000      -0.14310000
H        0.60190000      -0.59420000      -2.15140000
H        1.12680000       1.00340000      -1.56880000
H        2.17890000      -1.71640000      -0.60790000
H        2.48290000      -0.84650000       3.39590000
