20
Properties=species:S:1:pos:R:3 gdb_80060=T pbc="F F F"
C       -0.06630000       1.53070000       0.06460000
N        0.10400000       0.08470000       0.02710000
C        1.12420000      -0.58630000      -0.89200000
C        2.34410000       0.29180000      -1.01510000
C        2.94880000       0.33830000       0.18380000
C        2.28480000      -0.59730000       1.11580000
C        1.43700000      -1.54460000       0.30030000
C        0.67970000      -0.59180000       1.16160000
C       -0.06130000      -0.74950000       2.45460000
H        0.83560000       2.08900000       0.35630000
H       -0.39040000       1.88360000      -0.92000000
H       -0.86160000       1.76610000       0.78010000
H        0.67250000      -0.97020000      -1.80700000
H        2.55170000       0.92730000      -1.86690000
H        3.75770000       0.99960000       0.47110000
H        2.76760000      -0.94660000       2.02110000
H        1.48760000      -2.62660000       0.29680000
H        0.48350000      -1.41200000       3.13370000
H       -0.18740000       0.21310000       2.96300000
H       -1.05620000      -1.17380000       2.28210000
