20
Properties=species:S:1:pos:R:3 gdb_59156=T pbc="F F F"
C        0.05360000       1.36180000      -0.25950000
C        0.08090000      -0.11960000       0.14350000
C        0.70640000      -0.31940000       1.53070000
C       -1.32260000      -0.69890000       0.10000000
C       -1.98800000      -1.24620000      -1.11170000
O       -1.01800000      -1.89480000      -1.97850000
C       -0.76780000      -2.84500000      -0.98350000
N       -0.06990000      -3.88460000      -1.01880000
C       -1.66150000      -2.19810000       0.02260000
H        1.06350000       1.78410000      -0.25820000
H       -0.36640000       1.49280000      -1.26170000
H       -0.55250000       1.95060000       0.43970000
H        0.69020000      -0.65800000      -0.59020000
H        0.75080000      -1.38030000       1.79450000
H        1.72510000       0.08000000       1.55970000
H        0.12540000       0.19740000       2.30420000
H       -2.02970000      -0.19120000       0.75760000
H       -2.92670000      -0.95410000      -1.56290000
H        0.37280000      -4.00120000      -1.93190000
H       -2.28830000      -2.70580000       0.74060000
