19
Properties=species:S:1:pos:R:3 gdb_94814=T pbc="F F F"
C        0.79360000       1.30070000      -0.20390000
C       -0.11790000       0.11510000       0.10170000
O       -0.14770000      -0.84660000      -0.96180000
C        0.89900000      -1.79960000      -0.78180000
C        1.34700000      -1.66020000       0.66170000
C        2.21390000      -2.56910000       1.40420000
O        2.71980000      -1.31060000       0.91920000
C        0.33820000      -0.72090000       1.32440000
O        0.88020000      -0.01660000       2.40870000
H        1.83340000       0.98600000      -0.34020000
H        0.46310000       1.79680000      -1.12010000
H        0.76130000       2.02060000       0.61870000
H       -1.14860000       0.46220000       0.22060000
H        0.49400000      -2.79340000      -1.00310000
H        1.74580000      -1.61050000      -1.45560000
H        2.11310000      -2.63770000       2.48610000
H        2.63090000      -3.44770000       0.91460000
H       -0.51780000      -1.29920000       1.69180000
H        1.83110000       0.04520000       2.23450000
