23
Properties=species:S:1:pos:R:3 gdb_102658=T pbc="F F F"
C       -0.97570000       1.26550000       0.29330000
C       -0.25080000      -0.07350000       0.14820000
C        0.60170000      -0.17570000      -1.11710000
C        1.30160000      -1.53490000      -1.24400000
O        0.36380000      -2.58390000      -1.38780000
O       -0.27730000      -0.00980000      -2.24340000
C        0.32930000       0.47630000      -3.40450000
C       -0.54980000       1.25870000      -4.32520000
C        0.54760000       1.96030000      -3.54840000
H       -0.26610000       2.10010000       0.33740000
H       -1.64430000       1.43720000      -0.55390000
H       -1.57310000       1.29040000       1.20960000
H        0.40960000      -0.23940000       1.00820000
H       -0.96800000      -0.90090000       0.14460000
H        1.35450000       0.62680000      -1.12650000
H        2.00610000      -1.51190000      -2.09180000
H        1.88800000      -1.74080000      -0.34180000
H       -0.28540000      -2.26250000      -2.02670000
H        1.06870000      -0.18800000      -3.85010000
H       -0.43420000       1.12180000      -5.39430000
H       -1.56860000       1.42130000      -3.99290000
H        0.23800000       2.58450000      -2.71780000
H        1.42640000       2.30890000      -4.07960000
