19
Properties=species:S:1:pos:R:3 gdb_86166=T pbc="F F F"
C       -0.01280000       1.58060000      -0.06050000
C        0.04620000       0.05080000       0.02100000
C        0.75750000      -0.63010000      -1.17470000
C        1.49390000      -1.86300000      -0.59830000
O        2.71830000      -2.16950000      -1.23620000
C        1.61260000      -1.51680000       0.88770000
C        0.82260000      -0.47910000       1.20240000
C        2.44190000      -2.25930000       1.76110000
C        3.16250000      -2.90980000       2.47500000
H        0.99460000       2.00730000      -0.11690000
H       -0.56660000       1.90370000      -0.94800000
H       -0.51050000       2.00640000       0.81720000
H       -0.98800000      -0.32110000       0.08940000
H        0.08110000      -0.88690000      -1.99340000
H        1.51570000       0.05150000      -1.58110000
H        0.89570000      -2.77520000      -0.71520000
H        3.33150000      -1.44760000      -1.05790000
H        0.71270000      -0.07310000       2.20240000
H        3.79390000      -3.48100000       3.10930000
