16
Properties=species:S:1:pos:R:3 gdb_35069=T pbc="F F F"
C       -0.07530000      -1.20110000       0.18410000
C       -0.04960000      -0.00460000       0.07580000
C       -0.02310000       1.44820000      -0.02250000
C       -0.63330000       2.07780000       1.24700000
C        0.18960000       3.06620000       1.64020000
C        1.29810000       2.63330000       2.61080000
C        2.08880000       2.39380000       1.25350000
C        1.22350000       3.34300000       0.52470000
N        1.36900000       2.01870000      -0.04180000
H       -0.09360000      -2.26030000       0.26020000
H       -0.47110000       1.75810000      -0.97660000
H       -1.18160000       1.44480000       1.93710000
H        1.82140000       3.42410000       3.16000000
H        1.07710000       1.79120000       3.27010000
H        3.16560000       2.27780000       1.19290000
H        1.43470000       4.25810000      -0.01550000
