17
Properties=species:S:1:pos:R:3 gdb_2196=T pbc="F F F"
C       -1.06870000       1.20010000      -0.31260000
C       -0.11780000       0.01360000      -0.37600000
C        0.90860000      -0.12940000      -1.54690000
C        2.03550000      -0.51420000      -0.53340000
C        3.42420000       0.09890000      -0.64110000
C        1.09700000       0.00800000       0.56910000
O        1.27970000       0.42240000       1.67870000
H       -0.52870000       2.14290000      -0.44800000
H       -1.83780000       1.13560000      -1.08880000
H       -1.56800000       1.24090000       0.66010000
H       -0.66900000      -0.92680000      -0.24500000
H        0.67250000      -0.86220000      -2.31980000
H        1.11050000       0.83570000      -2.02160000
H        2.10440000      -1.60650000      -0.44780000
H        3.36580000       1.18840000      -0.73270000
H        4.01450000      -0.12740000       0.25190000
H        3.96270000      -0.28610000      -1.51290000
