17
Properties=species:S:1:pos:R:3 gdb_129689=T pbc="F F F"
N       -0.34600000       1.13290000       0.72620000
C       -0.13100000      -0.13740000       0.13090000
C       -1.11530000      -1.02080000      -0.29010000
N       -0.46010000      -2.11830000      -0.75750000
N        0.88310000      -2.02660000      -0.65260000
C        1.08010000      -0.82310000      -0.12220000
N       -2.50570000      -0.89520000      -0.38560000
C       -3.33750000      -1.78260000       0.44510000
C       -3.21180000      -0.33940000       0.77390000
H        0.52030000       1.50270000       1.09950000
H       -0.69760000       1.80900000       0.05530000
H       -0.87180000      -2.93000000      -1.18470000
H        2.08650000      -0.48240000       0.08010000
H       -4.23200000      -2.15960000      -0.04080000
H       -2.82350000      -2.49040000       1.09060000
H       -2.61280000      -0.06200000       1.63440000
H       -4.01840000       0.34400000       0.52710000
