19
Properties=species:S:1:pos:R:3 gdb_37299=T pbc="F F F"
C       -0.03170000       1.54790000      -0.12820000
C        1.28470000       0.82570000       0.03600000
C        0.00590000       0.04780000       0.04370000
C       -0.17720000      -0.65730000       1.43100000
C        1.07310000      -1.53290000       1.56100000
C        2.21100000      -0.84060000       1.55420000
C        2.00710000       0.67150000       1.41790000
C        1.03480000       1.10210000       2.50260000
C       -0.10300000       0.40990000       2.50940000
H       -0.40250000       2.16550000       0.68010000
H       -0.26380000       1.91970000      -1.12180000
H        1.94480000       0.75720000      -0.82230000
H       -0.24430000      -0.57440000      -0.80910000
H       -1.10300000      -1.23240000       1.47130000
H        0.99870000      -2.61160000       1.62860000
H        3.20370000      -1.27020000       1.61530000
H        2.94380000       1.22940000       1.44700000
H        1.26270000       1.92920000       3.16460000
H       -0.93640000       0.59140000       3.17780000
