21
Properties=species:S:1:pos:R:3 gdb_94437=T pbc="F F F"
C       -0.20700000       1.45580000       0.01110000
C        0.02570000      -0.04980000      -0.06730000
C        1.29250000      -0.47010000      -0.87490000
C        2.06000000      -0.65130000       0.46570000
C        0.70590000      -0.64900000       1.19450000
O        0.59020000       0.03040000       2.45850000
C       -0.14830000      -1.06170000       3.04420000
C        0.11560000      -1.94670000       1.82080000
O       -1.05440000      -2.50260000       1.27420000
H        0.70910000       1.99220000       0.28020000
H       -0.55220000       1.84130000      -0.95410000
H       -0.95900000       1.69760000       0.76750000
H       -0.90100000      -0.55970000      -0.34600000
H        1.15850000      -1.41090000      -1.41610000
H        1.69050000       0.27260000      -1.57050000
H        2.69310000      -1.53510000       0.58990000
H        2.64350000       0.23420000       0.73200000
H        0.27520000      -1.38230000       4.00170000
H       -1.21290000      -0.82850000       3.16970000
H        0.88430000      -2.71200000       1.99100000
H       -0.80790000      -3.09940000       0.56080000
