16
Properties=species:S:1:pos:R:3 gdb_55508=T pbc="F F F"
C       -0.69370000       1.18510000       0.32520000
C        0.15030000       0.00240000      -0.06010000
O        1.18580000      -0.31070000       0.47910000
C       -0.38990000      -0.84190000      -1.24130000
O       -1.42710000      -0.53340000      -1.81210000
N        0.41430000      -1.89460000      -1.51870000
C        0.29070000      -2.87720000      -2.52490000
N       -0.89550000      -2.84470000      -3.20470000
N        1.27670000      -3.68200000      -2.63380000
H       -0.81680000       1.84960000      -0.53580000
H       -1.70070000       0.85000000       0.59360000
H       -0.23050000       1.71470000       1.15730000
H        1.25270000      -1.97300000      -0.95500000
H       -1.47060000      -2.01750000      -3.10410000
H       -0.94330000      -3.36080000      -4.06600000
H        1.11190000      -4.37080000      -3.36530000
