18
Properties=species:S:1:pos:R:3 gdb_105215=T pbc="F F F"
N       -0.07980000       1.06000000       0.01330000
H        0.38980000       0.15710000       0.13700000
H        0.62710000       1.73620000      -0.28700000
H       -0.77340000       0.96400000      -0.73290000
C       -0.70280000       1.48320000       1.31810000
C       -1.35720000       0.41500000       2.13450000
C       -0.04980000       1.03440000       2.58320000
C        1.22910000       0.20470000       2.57350000
O        1.43770000      -0.40380000       3.80640000
C       -0.17280000       2.10020000       3.73550000
O        0.57160000       1.87620000       4.71700000
O       -1.00010000       2.99610000       3.52220000
H       -1.10290000       2.49050000       1.28480000
H       -2.26660000       0.70200000       2.64960000
H       -1.33300000      -0.60900000       1.76490000
H        1.18530000      -0.60250000       1.81030000
H        2.07200000       0.86490000       2.28580000
H        1.23100000       0.34070000       4.43740000
