21
Properties=species:S:1:pos:R:3 gdb_121165=T pbc="F F F"
O        0.02330000       1.45380000      -0.02520000
C        0.04860000       0.03510000       0.01570000
C       -1.38860000      -0.46160000      -0.08680000
C       -1.49780000      -1.97900000      -0.04700000
C       -1.22720000      -2.74430000       1.28940000
C       -2.44550000      -3.66860000       0.99270000
C       -2.88310000      -2.64090000      -0.05190000
C       -4.19720000      -2.01970000      -0.22790000
O       -3.65000000      -2.91900000      -1.20580000
H        0.92750000       1.77350000       0.04440000
H        0.64320000      -0.37850000      -0.81570000
H        0.50340000      -0.32800000       0.95180000
H       -1.96880000      -0.02070000       0.73320000
H       -1.81880000      -0.07990000      -1.02120000
H       -0.90070000      -2.42230000      -0.85450000
H       -0.25520000      -3.22850000       1.39690000
H       -1.40010000      -2.10480000       2.16000000
H       -2.14780000      -4.60990000       0.52140000
H       -3.13430000      -3.88570000       1.81240000
H       -5.05320000      -2.40080000       0.32850000
H       -4.27560000      -0.98060000      -0.54460000
