13
Properties=species:S:1:pos:R:3 gdb_7874=T pbc="F F F"
C        0.01090000       1.49370000      -0.02290000
C       -0.06560000       0.00770000      -0.00530000
C       -1.09210000      -0.83630000      -0.17280000
C       -0.59980000      -2.21290000      -0.05490000
N       -1.27070000      -3.27650000      -0.15360000
O        0.76500000      -2.15990000       0.19050000
C        1.14980000      -0.82620000       0.23180000
O        2.27860000      -0.48920000       0.42860000
H        0.71010000       1.83150000      -0.79550000
H       -0.96630000       1.94360000      -0.20820000
H        0.39970000       1.86800000       0.93020000
H       -2.13150000      -0.61310000      -0.36530000
H       -0.67460000      -4.09680000      -0.02870000
