18
Properties=species:S:1:pos:R:3 gdb_59446=T pbc="F F F"
C       -1.38520000       3.10650000       1.14280000
C       -1.08070000       1.99620000       0.13450000
N        0.06840000       1.13550000       0.49870000
H        0.89760000       1.70150000       0.65780000
H       -0.11700000       0.64060000       1.36780000
H        0.05440000       0.25860000      -1.03270000
C       -2.28640000       1.09760000      -0.08760000
O       -3.11600000       1.39830000      -1.20820000
C       -2.39270000       0.16130000      -1.21800000
C       -1.36410000      -0.03100000      -2.33150000
O       -1.72850000      -0.26600000      -3.45260000
O       -0.07470000       0.02270000      -1.99250000
H       -0.52210000       3.76750000       1.27100000
H       -2.22920000       3.71440000       0.80220000
H       -1.64230000       2.68820000       2.12310000
H       -0.83610000       2.44560000      -0.83360000
H       -2.83980000       0.84530000       0.82130000
H       -3.02870000      -0.71690000      -1.10090000
