12
Properties=species:S:1:pos:R:3 gdb_24843=T pbc="F F F"
O        0.01610000       0.01920000      -0.65960000
C        0.00850000       1.13800000      -0.20410000
C       -1.21610000       1.84110000       0.21370000
C       -1.40380000       3.14710000       0.45580000
O       -0.59810000       4.21130000       0.19920000
C        0.62800000       4.11210000      -0.39330000
N        1.44460000       3.15700000      -0.42420000
C        1.30940000       1.88320000       0.14050000
O        2.16320000       1.38570000       0.82330000
H       -2.06580000       1.19420000       0.40680000
H       -2.34390000       3.51420000       0.85100000
H        0.86420000       5.06890000      -0.85230000
