16
Properties=species:S:1:pos:R:3 gdb_66013=T pbc="F F F"
O        0.18860000       1.53910000       0.89220000
C       -0.01580000       0.22040000       0.43440000
C        0.51010000      -0.08780000      -0.98840000
O        1.45860000      -1.05990000      -0.42490000
C        1.07110000      -0.76040000       0.85260000
N        1.50700000      -1.10340000       1.97660000
C       -1.43540000      -0.20980000       0.73870000
C       -2.53690000       0.05910000      -0.18840000
O       -1.98940000      -1.25750000      -0.05340000
H        0.68950000       1.48190000       1.71480000
H       -0.18250000      -0.58280000      -1.66830000
H        1.03580000       0.74510000      -1.45730000
H        2.30300000      -1.73930000       1.90810000
H       -1.65050000      -0.27690000       1.80520000
H       -3.54590000       0.18630000       0.19830000
H       -2.33590000       0.55420000      -1.13740000
