18
Properties=species:S:1:pos:R:3 gdb_68057=T pbc="F F F"
C        0.04280000       1.44510000       0.12420000
C       -0.01290000      -0.03570000      -0.06470000
C        0.58730000      -0.94420000      -1.16740000
C        0.04240000      -1.84620000      -0.03100000
C        0.18810000      -3.31270000       0.21270000
O        0.63560000      -0.90350000       0.94840000
C       -1.26240000      -0.97940000      -0.01770000
C       -2.05560000      -0.98100000       1.19710000
N       -2.71820000      -0.98350000       2.14450000
H        1.08310000       1.78170000       0.15540000
H       -0.46350000       1.95330000      -0.70190000
H       -0.44520000       1.72780000       1.06140000
H        0.09730000      -0.97730000      -2.14430000
H        1.67500000      -0.91220000      -1.23360000
H        1.24690000      -3.58400000       0.25420000
H       -0.28200000      -3.58940000       1.16080000
H       -0.28630000      -3.88130000      -0.59290000
H       -1.89320000      -1.01520000      -0.90970000
