15
Properties=species:S:1:pos:R:3 gdb_48134=T pbc="F F F"
O       -0.86510000       1.21830000       0.17270000
C        0.27440000       0.93100000      -0.08100000
C        1.46360000       1.88920000      -0.20470000
O        2.55050000       1.40480000      -0.47130000
N        1.27850000       3.22770000      -0.01720000
C        2.40530000       4.17140000      -0.13030000
C        1.70450000       5.52480000       0.15930000
N        0.28270000       5.22620000       0.40250000
C        0.12420000       3.97150000       0.29170000
H        0.61340000      -0.10770000      -0.26610000
H        3.18150000       3.90970000       0.59330000
H        2.84580000       4.10430000      -1.12840000
H        2.12070000       6.02880000       1.03700000
H        1.78630000       6.22290000      -0.67950000
H       -0.81280000       3.44740000       0.41510000
