21
Properties=species:S:1:pos:R:3 gdb_68598=T pbc="F F F"
C        0.03360000       1.51620000       0.07920000
C       -0.04930000       0.02370000      -0.05460000
C        0.34620000      -0.79310000      -1.31830000
C       -0.40160000      -1.91940000      -0.53510000
C        0.49850000      -2.02590000       0.70430000
O        0.72190000      -0.62620000       0.98450000
C       -1.34990000      -0.80110000      -0.05970000
C       -2.51240000      -0.80510000       0.86970000
C       -2.68890000      -0.42320000      -0.59450000
H        1.07240000       1.84970000      -0.00210000
H       -0.55060000       2.00740000      -0.70410000
H       -0.34760000       1.83570000       1.05450000
H       -0.18670000      -0.48110000      -2.21730000
H        1.41550000      -0.91900000      -1.50850000
H       -0.75140000      -2.83990000      -1.00150000
H        0.00380000      -2.50740000       1.55620000
H        1.45390000      -2.52860000       0.51180000
H       -2.91400000      -1.75980000       1.19600000
H       -2.58320000      -0.01720000       1.61320000
H       -2.88350000       0.62010000      -0.82510000
H       -3.20780000      -1.12270000      -1.24300000
