21
Properties=species:S:1:pos:R:3 gdb_72493=T pbc="F F F"
C       -0.07080000       1.50210000      -0.00230000
C        0.02330000      -0.01950000       0.00030000
C        0.85490000      -0.59970000      -1.16690000
O        1.41330000      -1.83400000      -0.69740000
C        0.94880000      -2.04780000       0.63640000
C        0.78210000      -0.63290000       1.19480000
C       -0.41500000      -2.75410000       0.60570000
O       -1.33360000      -2.06330000      -0.22610000
C       -1.38100000      -0.66310000      -0.00990000
H        0.92170000       1.95510000       0.09010000
H       -0.52470000       1.87330000      -0.92830000
H       -0.68180000       1.86350000       0.83210000
H        0.24230000      -0.78860000      -2.05610000
H        1.67410000       0.07740000      -1.44480000
H        1.68600000      -2.66340000       1.16050000
H        1.75440000      -0.15290000       1.34640000
H        0.21770000      -0.59130000       2.13090000
H       -0.31900000      -3.75420000       0.17420000
H       -0.80220000      -2.85380000       1.63490000
H       -1.89480000      -0.42740000       0.93840000
H       -1.98730000      -0.26090000      -0.82870000
