17
Properties=species:S:1:pos:R:3 gdb_126020=T pbc="F F F"
C       -0.24190000       1.55880000      -0.02130000
C        0.02730000       0.05310000       0.00540000
C        0.94690000      -0.43160000      -1.17080000
N        1.70020000      -1.58800000      -0.63390000
C        1.76470000      -1.41050000       0.73480000
N        2.49560000      -1.93430000       1.68200000
O        1.98280000      -1.31630000       2.85610000
C        0.98650000      -0.46560000       2.52120000
C        0.79690000      -0.47230000       1.18500000
H        0.69000000       2.12440000       0.07750000
H       -0.72440000       1.85370000      -0.95910000
H       -0.90370000       1.85240000       0.79900000
H       -0.93200000      -0.47680000      -0.06750000
H        0.37050000      -0.72330000      -2.05270000
H        1.62430000       0.38640000      -1.45970000
H        2.54670000      -1.85220000      -1.11700000
H        0.53550000       0.05890000       3.34980000
