20
Properties=species:S:1:pos:R:3 gdb_57294=T pbc="F F F"
C        0.21810000       1.51060000       0.08750000
C       -0.03870000      -0.01090000       0.00030000
C        0.61220000      -0.72020000       1.20980000
C       -1.55990000      -0.28400000      -0.00810000
C        0.55450000      -0.53260000      -1.23750000
C        1.04240000      -0.96220000      -2.25000000
C        1.63450000      -1.48350000      -3.48000000
C        2.61930000      -2.54780000      -3.24010000
N        3.39490000      -3.38490000      -3.06470000
H        1.29000000       1.72710000       0.09260000
H       -0.23150000       2.03360000      -0.76140000
H       -0.21860000       1.91110000       1.00850000
H        0.17910000      -0.34110000       2.14140000
H        0.44620000      -1.80010000       1.16660000
H        1.69090000      -0.54300000       1.23380000
H       -2.04180000       0.20630000      -0.85870000
H       -1.76480000      -1.35630000      -0.07160000
H       -2.01350000       0.09930000       0.91200000
H        0.85790000      -1.88340000      -4.14490000
H        2.13170000      -0.68140000      -4.04110000
