18
Properties=species:S:1:pos:R:3 gdb_121671=T pbc="F F F"
O        0.02870000       1.36070000      -0.44720000
C       -0.12780000       0.02710000      -0.00380000
C       -1.58670000      -0.38350000       0.07930000
O       -2.11140000      -0.27410000      -1.25840000
C       -3.38770000      -0.68810000      -1.41800000
O       -4.08030000      -1.12980000      -0.53540000
N       -3.75060000      -0.60150000      -2.75620000
C       -3.82540000       0.65650000      -3.48120000
C       -5.06010000      -0.12250000      -3.14120000
H       -0.41120000       1.41740000      -1.30230000
H        0.41250000      -0.68110000      -0.65100000
H        0.31480000      -0.02990000       0.99600000
H       -1.70130000      -1.41080000       0.43820000
H       -2.14820000       0.28310000       0.74110000
H       -3.63920000       1.57150000      -2.92520000
H       -3.42690000       0.64170000      -4.49130000
H       -5.56380000      -0.70320000      -3.90780000
H       -5.70050000       0.25690000      -2.35000000
