18
Properties=species:S:1:pos:R:3 gdb_101542=T pbc="F F F"
C        0.50330000       0.68230000       0.59910000
O       -0.12100000       0.05870000      -0.50040000
C       -1.38980000      -0.51050000      -0.23860000
C       -1.99670000      -0.85540000      -1.59350000
C       -1.27100000      -1.76310000       0.66290000
C       -1.26560000      -1.46380000       2.14580000
O       -1.88380000      -0.57210000       2.67240000
C       -0.45880000      -2.39000000       2.97280000
N        0.17250000      -3.12400000       3.60550000
H        1.37850000       1.20950000       0.21230000
H       -0.16380000       1.40070000       1.09660000
H        0.84970000      -0.04290000       1.35310000
H       -2.02590000       0.22030000       0.28320000
H       -1.39650000      -1.61560000      -2.10330000
H       -3.01640000      -1.23360000      -1.47750000
H       -2.02300000       0.03670000      -2.22340000
H       -2.14360000      -2.41070000       0.49980000
H       -0.38900000      -2.34700000       0.38210000
