16
Properties=species:S:1:pos:R:3 gdb_19466=T pbc="F F F"
O       -0.87430000       1.10120000       0.32440000
C        0.21680000       0.92540000      -0.16320000
C        1.37080000       1.88430000      -0.13010000
C        1.29940000       3.08340000      -1.16910000
C        0.37730000       3.80310000      -0.13810000
C        1.33570000       3.09850000       0.84600000
O        2.60280000       3.72520000       0.59930000
C        2.63820000       3.75660000      -0.84740000
H        0.44350000      -0.02480000      -0.69930000
H        2.31010000       1.32160000      -0.14530000
H        1.03500000       2.93600000      -2.21550000
H        0.38220000       4.89550000      -0.13280000
H       -0.63270000       3.40160000      -0.10620000
H        1.16340000       3.00180000       1.91560000
H        3.51310000       3.20780000      -1.21380000
H        2.68880000       4.79220000      -1.20390000
