17
Properties=species:S:1:pos:R:3 gdb_51587=T pbc="F F F"
O        0.23640000       2.42320000       2.03690000
C        0.00200000       2.40830000       0.85800000
C        0.91310000       1.79470000      -0.19030000
C        1.21660000       2.80250000      -1.28820000
C        2.41360000       3.68950000      -1.21030000
N        2.31910000       2.65670000      -2.24090000
C        3.21160000       1.50900000      -2.13490000
C        4.45830000       1.77160000      -2.86350000
N        5.45030000       1.96870000      -3.42060000
H       -0.93180000       2.85990000       0.45060000
H        1.80790000       1.43230000       0.31950000
H        0.38440000       0.93200000      -0.62270000
H        0.32190000       3.20220000      -1.76390000
H        2.37990000       4.71500000      -1.56510000
H        3.09730000       3.51660000      -0.37970000
H        3.48250000       1.23140000      -1.10390000
H        2.72430000       0.63810000      -2.58830000
