20
Properties=species:S:1:pos:R:3 gdb_96705=T pbc="F F F"
C        0.02890000       1.50530000       0.03680000
N        0.05940000       0.06020000       0.01270000
C       -1.01790000      -0.62150000       0.00850000
N       -1.03770000      -1.99030000       0.06960000
C        0.18240000      -2.79450000      -0.00100000
C       -0.10420000      -4.17520000       0.59060000
C        0.73640000      -2.87570000      -1.43050000
C       -2.35840000      -0.03700000      -0.02490000
N       -3.41160000       0.43870000      -0.06550000
H        0.59900000       1.89240000      -0.81580000
H       -0.97830000       1.94400000       0.00830000
H        0.53430000       1.86420000       0.94150000
H       -1.90800000      -2.44300000      -0.16190000
H        0.91660000      -2.27540000       0.62270000
H       -0.85850000      -4.70820000      -0.00160000
H        0.80360000      -4.78450000       0.58940000
H       -0.46800000      -4.09680000       1.61880000
H        0.02720000      -3.38090000      -2.09590000
H        0.93100000      -1.87410000      -1.82000000
H        1.67530000      -3.43840000      -1.44510000
