21
Properties=species:S:1:pos:R:3 gdb_83517=T pbc="F F F"
C       -0.02550000       1.58420000       0.03900000
C        0.02400000       0.05820000      -0.00070000
C        0.97840000      -0.59160000      -1.03610000
C        2.33610000      -0.12460000      -0.45770000
O        2.12900000      -0.13050000       0.97030000
C        0.77610000      -0.60200000       1.17130000
C        0.79260000      -2.09130000       0.83360000
C       -0.29180000      -2.69140000      -0.02730000
C        0.92000000      -2.08400000      -0.68620000
H        0.93840000       2.01780000       0.31360000
H       -0.32510000       1.99250000      -0.93230000
H       -0.76050000       1.92140000       0.77740000
H       -0.99410000      -0.31780000      -0.10750000
H        0.81640000      -0.32880000      -2.08330000
H        3.15520000      -0.80520000      -0.71900000
H        2.61090000       0.88730000      -0.77940000
H        0.47720000      -0.32560000       2.18350000
H        1.40230000      -2.73650000       1.45530000
H       -0.31970000      -3.77630000      -0.03800000
H       -1.27480000      -2.24130000      -0.10140000
H        1.61740000      -2.74350000      -1.19200000
