21
Properties=species:S:1:pos:R:3 gdb_80489=T pbc="F F F"
C        0.11430000       1.61730000      -0.37220000
C        0.25310000       0.11690000      -0.21260000
C        1.49850000      -0.68320000      -0.43190000
C        2.74190000       0.02220000       0.12200000
C        2.12430000      -0.02030000       1.55950000
C        2.05710000       1.22160000       2.44050000
C        0.83080000      -0.63960000       0.97620000
C        0.07450000      -1.63900000       1.65200000
C       -0.55190000      -2.47590000       2.25120000
H        1.03680000       2.15840000      -0.15610000
H       -0.16740000       1.85410000      -1.40450000
H       -0.66820000       2.01270000       0.28400000
H       -0.62240000      -0.41650000      -0.57840000
H        1.52140000      -1.52750000      -1.11060000
H        3.65220000      -0.57400000       0.03780000
H        2.94580000       1.01480000      -0.29230000
H        2.63100000      -0.81260000       2.11890000
H        1.58130000       2.06900000       1.94180000
H        1.48800000       1.01030000       3.35240000
H        3.06340000       1.53300000       2.74270000
H       -1.10860000      -3.21390000       2.77290000
