17
Properties=species:S:1:pos:R:3 gdb_98350=T pbc="F F F"
C        1.38880000       1.50900000      -0.45790000
C        0.34940000       0.47220000      -0.04280000
O        0.40760000      -0.67330000      -0.90340000
C       -0.55390000      -0.82010000      -1.84280000
O       -0.55950000      -1.72250000      -2.62040000
C        0.54480000       0.01510000       1.40350000
O        0.71260000       0.83030000       2.28410000
C        0.51040000      -1.46560000       1.73240000
O        0.66040000      -1.67910000       3.10260000
H        2.38300000       1.05540000      -0.49180000
H        1.15470000       1.90860000      -1.44780000
H        1.39680000       2.32360000       0.26870000
H       -0.65800000       0.91230000      -0.09300000
H       -1.31960000      -0.02060000      -1.79740000
H       -0.43870000      -1.88380000       1.35880000
H        1.30090000      -1.96370000       1.14900000
H        0.77090000      -0.79890000       3.49480000
