18
Properties=species:S:1:pos:R:3 gdb_9644=T pbc="F F F"
C        0.23950000       1.53280000       0.11070000
C       -0.24390000       0.09790000      -0.13400000
C        0.45570000      -0.52650000      -1.32010000
N        1.78770000      -1.10030000      -1.10410000
C        0.67870000      -2.00600000      -1.48480000
C        0.26120000      -3.04780000      -0.46440000
C        0.66750000      -2.47820000      -2.85460000
N        0.67090000      -2.86360000      -3.94580000
H        1.31570000       1.54810000       0.30810000
H        0.04620000       2.17150000      -0.75800000
H       -0.27030000       1.97640000       0.97060000
H       -0.06540000      -0.50500000       0.76040000
H       -1.32540000       0.09110000      -0.31760000
H        0.30470000       0.01160000      -2.25570000
H        2.40040000      -0.92700000      -1.89690000
H        0.35550000      -2.64700000       0.54500000
H       -0.77320000      -3.36280000      -0.63010000
H        0.90420000      -3.92930000      -0.54100000
