20
Properties=species:S:1:pos:R:3 gdb_40515=T pbc="F F F"
C        0.21350000       1.53160000       0.10460000
N        1.33720000       0.58960000      -0.01550000
C       -0.04110000       0.07040000       0.01090000
C       -0.43670000      -0.74210000       1.20140000
C        0.20170000      -0.47760000       2.58660000
C        0.38720000      -2.01520000       2.78430000
C       -0.23300000      -2.28210000       1.38800000
C       -1.76690000      -2.34000000       1.37410000
O       -1.87830000      -0.90010000       1.27650000
H        0.14070000       2.03010000       1.06680000
H       -0.05080000       2.14970000      -0.74880000
H        1.69100000       0.58510000      -0.96790000
H       -0.46700000      -0.28750000      -0.92510000
H        1.14670000       0.06540000       2.52330000
H       -0.47110000       0.02500000       3.28460000
H        1.43490000      -2.31470000       2.85580000
H       -0.15530000      -2.46180000       3.62240000
H        0.31100000      -2.92050000       0.69230000
H       -2.20580000      -2.83180000       0.49600000
H       -2.24850000      -2.73510000       2.27810000
