21
Properties=species:S:1:pos:R:3 gdb_63670=T pbc="F F F"
C        0.05970000       1.49580000      -0.20320000
C       -0.07280000       0.01780000       0.09420000
C       -1.14700000      -0.69360000      -0.70310000
O        1.16680000      -0.70900000       0.19190000
C        0.36420000      -0.57470000       1.37460000
C        0.97350000       0.16650000       2.53980000
C        2.14780000      -0.63340000       3.14830000
C        2.75160000       0.03140000       4.29540000
C        3.23000000       0.60260000       5.23880000
H        0.89800000       1.94650000       0.32920000
H        0.22530000       1.64530000      -1.27570000
H       -0.85750000       2.02970000       0.06840000
H       -0.95500000      -0.59170000      -1.77680000
H       -1.17130000      -1.75870000      -0.46070000
H       -2.13410000      -0.26520000      -0.49800000
H       -0.12900000      -1.50800000       1.66320000
H        1.33610000       1.15050000       2.23540000
H        0.20600000       0.32620000       3.30600000
H        1.79740000      -1.63090000       3.44490000
H        2.90160000      -0.79340000       2.36820000
H        3.66370000       1.09520000       6.07320000
