18
Properties=species:S:1:pos:R:3 gdb_83782=T pbc="F F F"
O       -0.07180000       1.50770000      -0.02090000
C       -0.03110000       0.10730000       0.04150000
C        0.17790000      -0.62050000       1.40090000
C       -0.48730000       0.20010000       2.50180000
O       -1.81010000       0.56460000       2.10560000
C       -2.33910000      -0.37510000       1.19000000
C       -2.01070000      -1.81420000       1.64380000
N       -0.71870000      -1.74670000       0.87820000
C       -1.35110000      -0.65550000       0.00320000
H        0.80060000       1.82870000      -0.26600000
H        0.63630000      -0.31610000      -0.71930000
H        1.18070000      -0.95130000       1.68410000
H       -0.50720000      -0.35890000       3.44840000
H        0.06640000       1.12970000       2.66770000
H       -3.36520000      -0.07080000       0.97420000
H       -1.94420000      -2.01000000       2.71760000
H       -2.64460000      -2.57550000       1.17980000
H       -1.80390000      -0.95620000      -0.94530000
