11
Properties=species:S:1:pos:R:3 gdb_3879=T pbc="F F F"
N        0.03610000       1.38230000       0.16060000
C       -0.00100000       0.00340000       0.04630000
N       -1.07810000      -0.72080000       0.03650000
N       -0.59360000      -2.02400000       0.01970000
C        0.77480000      -2.12020000       0.00820000
O        1.49820000      -3.09130000       0.00070000
N        1.14070000      -0.75870000       0.00360000
H        0.62860000       1.83290000      -0.52680000
H       -0.90020000       1.76680000       0.12690000
H       -1.23260000      -2.79750000       0.04570000
H        2.08900000      -0.44650000       0.11980000
