23
Properties=species:S:1:pos:R:3 gdb_95326=T pbc="F F F"
C       -0.05050000       1.56930000       0.04540000
C       -0.01100000       0.02900000      -0.00520000
C        0.58200000      -0.48880000      -1.34370000
C        2.12270000      -0.59150000      -1.34480000
C        2.51170000      -1.58000000      -0.25250000
C        3.84520000      -1.53210000       0.56380000
C        3.00420000      -1.70900000       1.87570000
C        1.80800000      -1.27730000       1.05210000
C        0.73590000      -0.51100000       1.19840000
H        0.95330000       1.99440000      -0.06200000
H       -0.67790000       1.97170000      -0.75720000
H       -0.45660000       1.92310000       0.99900000
H       -1.05460000      -0.31480000       0.04530000
H        0.17550000      -1.48670000      -1.55120000
H        0.24180000       0.15860000      -2.15960000
H        2.48180000      -0.89710000      -2.33380000
H        2.56730000       0.38860000      -1.12990000
H        2.32290000      -2.61000000      -0.58570000
H        4.59900000      -2.29160000       0.34370000
H        4.30740000      -0.54220000       0.51870000
H        2.95690000      -2.76050000       2.18190000
H        3.27260000      -1.10530000       2.74670000
H        0.40290000      -0.17980000       2.18090000
