20
Properties=species:S:1:pos:R:3 gdb_117244=T pbc="F F F"
C        0.88320000       1.14620000       0.23030000
O        0.94940000      -0.07010000      -0.47910000
C       -0.08590000      -0.95970000      -0.14150000
C       -0.00240000      -2.27200000      -0.92760000
O       -0.81630000      -3.13670000      -0.69390000
C        1.06770000      -2.38760000      -1.96530000
N        1.45660000      -3.75310000      -2.37700000
C        0.77030000      -2.91690000      -3.35000000
C       -0.60020000      -3.35700000      -3.79970000
H       -0.05550000       1.68410000       0.02620000
H        0.95900000       0.98660000       1.31690000
H        1.72380000       1.76170000      -0.09800000
H       -0.06590000      -1.21680000       0.93040000
H       -1.07670000      -0.51770000      -0.34160000
H        1.83730000      -1.62730000      -1.90420000
H        2.45800000      -3.77010000      -2.55240000
H        1.37980000      -2.45540000      -4.12760000
H       -1.15740000      -3.78530000      -2.96600000
H       -1.16260000      -2.51300000      -4.21330000
H       -0.50630000      -4.11570000      -4.58420000
