23
Properties=species:S:1:pos:R:3 gdb_74843=T pbc="F F F"
C        0.10970000       1.48340000      -0.00370000
C        0.01010000      -0.01160000      -0.01170000
C       -0.12230000      -0.78910000      -1.09260000
C       -0.08220000      -2.24020000      -0.76130000
C        1.23170000      -2.71310000      -0.16790000
C        0.11060000      -2.28420000       0.74310000
C        0.05530000      -0.84370000       1.27870000
C        1.25840000      -0.49510000       2.17340000
C       -1.25070000      -0.64990000       2.07800000
H        1.07980000       1.82400000       0.38000000
H       -0.01020000       1.89090000      -1.01130000
H       -0.65480000       1.94020000       0.63710000
H       -0.19880000      -0.41980000      -2.11050000
H       -0.70730000      -2.94720000      -1.29600000
H        1.44660000      -3.77670000      -0.20090000
H        2.09890000      -2.07340000      -0.29510000
H       -0.36590000      -3.05530000       1.33910000
H        2.20510000      -0.61760000       1.63940000
H        1.20370000       0.53920000       2.53000000
H        1.28260000      -1.14610000       3.05380000
H       -1.24950000      -1.27970000       2.97530000
H       -1.37150000       0.38840000       2.40400000
H       -2.12120000      -0.91990000       1.47250000
