19
Properties=species:S:1:pos:R:3 gdb_23529=T pbc="F F F"
C        0.04680000       1.45050000      -0.15900000
N        0.00810000      -0.00070000       0.01370000
C       -1.24870000      -0.52070000       0.69900000
C       -0.97270000      -2.03480000       0.64500000
C        0.53160000      -2.01650000       1.09240000
C        0.69800000      -0.49650000       1.27900000
C       -0.57680000      -0.10740000       2.00210000
N       -0.80870000       0.57330000       3.04070000
O       -2.19090000       0.86800000       3.15440000
H        1.05230000       1.73800000      -0.48160000
H       -0.65210000       1.72900000      -0.95350000
H       -0.20520000       2.02670000       0.74580000
H       -2.21210000      -0.13330000       0.37530000
H       -1.61570000      -2.59750000       1.32550000
H       -1.10030000      -2.42080000      -0.36810000
H        0.71000000      -2.56860000       2.01810000
H        1.20150000      -2.39300000       0.31710000
H        1.67580000      -0.08740000       1.52720000
H       -2.21650000       1.37520000       3.97260000
