21
Properties=species:S:1:pos:R:3 gdb_117931=T pbc="F F F"
C        0.00970000       1.54820000      -0.01470000
C       -0.15300000       0.05220000       0.25230000
C        0.70570000      -0.45330000       1.39390000
O        1.26200000       0.29480000       2.17210000
C        0.89290000      -1.96460000       1.57300000
O        1.74960000      -2.20570000       2.65840000
C       -0.44580000      -2.69820000       1.76800000
C       -0.25160000      -4.20840000       1.93350000
O       -1.48490000      -4.89670000       2.07450000
H        1.03700000       1.78550000      -0.30450000
H       -0.65750000       1.86880000      -0.81910000
H       -0.21930000       2.12870000       0.88160000
H       -1.19670000      -0.18310000       0.50350000
H        0.06600000      -0.54550000      -0.64160000
H        1.35680000      -2.33680000       0.64080000
H        1.98330000      -1.32350000       2.99320000
H       -0.93970000      -2.29240000       2.66120000
H       -1.10730000      -2.52240000       0.91270000
H        0.21830000      -4.62070000       1.03290000
H        0.42530000      -4.40310000       2.77470000
H       -1.84330000      -4.68280000       2.94150000
