13
Properties=species:S:1:pos:R:3 gdb_5511=T pbc="F F F"
C       -0.03270000       1.44340000       0.06520000
N       -0.01130000      -0.00870000       0.02940000
C       -0.02920000      -0.80660000      -1.06660000
N        0.00060000      -2.09130000      -0.76510000
C        0.04010000      -2.13880000       0.59450000
C        0.03430000      -0.86110000       1.12360000
C        0.06440000      -0.39100000       2.45150000
N        0.08830000       0.01140000       3.53880000
H        0.86910000       1.82960000       0.54730000
H       -0.07790000       1.81620000      -0.95890000
H       -0.90700000       1.80110000       0.61500000
H       -0.06460000      -0.39380000      -2.06440000
H        0.07080000      -3.06990000       1.13910000
