14
Properties=species:S:1:pos:R:3 gdb_61134=T pbc="F F F"
O       -0.08530000       1.44510000       0.02830000
C        0.00450000       0.03560000       0.01360000
C        0.67200000      -0.51560000      -1.27770000
C       -0.04080000      -0.11440000      -2.48070000
C       -0.64180000       0.21140000      -3.46810000
C        0.70250000      -0.47550000       1.19910000
C        1.31190000      -0.87230000       2.16410000
C        1.99410000      -1.32190000       3.25850000
N        2.57680000      -1.70420000       4.18760000
H        0.80810000       1.80840000       0.03400000
H       -1.03290000      -0.31660000       0.03810000
H        1.71130000      -0.16340000      -1.30980000
H        0.71950000      -1.60890000      -1.20660000
H       -1.16800000       0.50070000      -4.34410000
