19
Properties=species:S:1:pos:R:3 gdb_121579=T pbc="F F F"
C       -0.07490000       1.30440000       0.12210000
O       -0.00030000      -0.09700000       0.01820000
C        0.66250000      -0.52060000      -1.15370000
C        0.67870000      -2.04200000      -1.15110000
C        1.36890000      -2.62800000      -2.36880000
O        1.85200000      -1.93770000      -3.24400000
C        1.41510000      -4.07560000      -2.42070000
C        1.44720000      -5.28180000      -2.45270000
C        1.49370000      -6.73260000      -2.50570000
H        0.92490000       1.76630000       0.15250000
H       -0.62940000       1.74820000      -0.72010000
H       -0.59960000       1.53680000       1.05210000
H        0.15040000      -0.14570000      -2.05360000
H        1.69070000      -0.12790000      -1.18890000
H        1.17740000      -2.41740000      -0.24850000
H       -0.34480000      -2.43500000      -1.10310000
H        2.02120000      -7.08280000      -3.39870000
H        2.00650000      -7.13810000      -1.62670000
H        0.48250000      -7.15360000      -2.52130000
