15
Properties=species:S:1:pos:R:3 gdb_127495=T pbc="F F F"
C       -0.02640000       1.40130000      -0.06000000
N        0.01610000      -0.04690000       0.01770000
N       -0.03760000      -0.78710000      -1.10770000
C       -0.01760000      -2.02560000      -0.62640000
N        0.04260000      -2.11810000       0.73150000
C        0.05970000      -0.85220000       1.11220000
C        0.11840000      -0.36190000       2.51810000
C       -0.05150000      -3.16390000      -1.48530000
N       -0.07930000      -4.09120000      -2.17500000
H        0.58870000       1.83090000       0.73290000
H        0.36830000       1.69820000      -1.03110000
H       -1.05240000       1.76880000       0.04000000
H        1.00660000       0.25440000       2.69410000
H       -0.76050000       0.23940000       2.77340000
H        0.15640000      -1.22390000       3.18420000
