14
Properties=species:S:1:pos:R:3 gdb_45990=T pbc="F F F"
O        0.04710000       0.02670000       0.52170000
C        0.07750000       1.16550000       0.14290000
N       -1.11170000       1.87580000      -0.08460000
C       -1.35700000       3.23420000      -0.02050000
C       -0.51650000       4.26820000      -0.21910000
C        0.84540000       4.18410000      -0.73470000
O        1.53460000       5.16190000      -0.95020000
C        1.35680000       2.79230000      -1.10360000
O        1.22580000       1.83330000      -0.04050000
H       -1.90480000       1.27730000       0.09500000
H       -2.39220000       3.44530000       0.23130000
H       -0.90130000       5.27030000      -0.07250000
H        0.83830000       2.42850000      -2.00000000
H        2.42450000       2.85840000      -1.30960000
