14
Properties=species:S:1:pos:R:3 gdb_131077=T pbc="F F F"
O        0.23970000       0.11990000      -0.28290000
C        0.31180000       1.30770000      -0.31060000
O        0.79390000       2.02970000       0.73010000
C        0.88210000       3.44220000       0.56110000
C        2.26750000       3.83410000       0.15520000
C        3.44130000       3.12470000       0.05840000
N        4.43200000       3.96820000      -0.35180000
N        3.94380000       5.15940000      -0.51260000
N        2.62850000       5.09020000      -0.20810000
H       -0.00960000       1.94280000      -1.15910000
H        0.14280000       3.78720000      -0.17630000
H        0.60950000       3.87950000       1.52730000
H        3.62160000       2.08190000       0.25850000
H        2.06740000       5.92500000      -0.27360000
