13
Properties=species:S:1:pos:R:3 gdb_2025=T pbc="F F F"
O       -0.01080000       0.21700000      -0.70800000
C       -0.01690000       1.26760000      -0.13900000
C       -1.13690000       2.20470000       0.36070000
C       -0.03150000       3.22340000       0.68880000
C       -0.05220000       4.68120000       0.58870000
O       -0.02590000       4.01270000       1.86010000
C        1.09120000       2.23420000       0.33020000
H       -1.88810000       2.48540000      -0.38250000
H       -1.64570000       1.81930000       1.25090000
H        0.85770000       5.21970000       0.32700000
H       -0.98280000       5.19540000       0.35210000
H        1.63410000       1.86270000       1.20610000
H        1.81410000       2.53440000      -0.43300000
