15
Properties=species:S:1:pos:R:3 gdb_34433=T pbc="F F F"
C       -0.04250000      -1.17890000       0.06920000
C       -0.02910000       0.02190000       0.05780000
C       -0.00700000       1.45800000       0.03670000
O       -0.86530000       2.05550000       0.98050000
C       -0.66390000       3.47030000       0.76250000
C        0.35690000       3.46150000      -0.35840000
C        1.33280000       2.27480000      -0.09620000
O        1.41340000       1.96720000      -1.52180000
C        0.00220000       2.27750000      -1.30800000
H       -0.05280000      -2.24090000       0.07840000
H       -1.61490000       3.93850000       0.48420000
H       -0.29710000       3.93580000       1.68440000
H        0.73930000       4.39000000      -0.77620000
H        2.24200000       2.22480000       0.50160000
H       -0.67790000       2.23080000      -2.15760000
