20
Properties=species:S:1:pos:R:3 gdb_16337=T pbc="F F F"
C        0.10190000       1.51710000       0.29820000
C        0.01580000       0.04040000      -0.11460000
C       -1.37990000      -0.51520000      -0.05030000
C       -2.02760000      -1.04040000       1.22210000
C       -1.91330000      -1.92610000       0.02060000
O       -2.97580000      -1.66740000      -0.89910000
C       -2.46900000      -0.31510000      -1.11780000
C       -3.53230000       0.75590000      -0.98670000
H        1.13250000       1.88140000       0.24590000
H       -0.50740000       2.14960000      -0.35620000
H       -0.25680000       1.65880000       1.32270000
H        0.40750000      -0.07930000      -1.13370000
H        0.66910000      -0.55660000       0.53380000
H       -1.32090000      -1.24250000       2.02230000
H       -3.00870000      -0.71060000       1.55130000
H       -1.43320000      -2.89780000      -0.01400000
H       -2.00920000      -0.27240000      -2.11580000
H       -3.96000000       0.77830000       0.01900000
H       -3.10750000       1.74110000      -1.20760000
H       -4.34280000       0.56910000      -1.69850000
