17
Properties=species:S:1:pos:R:3 gdb_81520=T pbc="F F F"
O        0.03810000       1.44630000      -0.09120000
C        0.04650000       0.04560000       0.01810000
C       -0.05310000      -0.60650000       1.44230000
C       -1.49760000      -0.03090000       1.50940000
C       -1.36190000      -0.60680000       0.06520000
C       -0.67020000      -1.85060000       0.70270000
O        0.15750000      -2.57290000      -0.19100000
C       -1.47520000      -2.77290000       1.49280000
C       -2.07320000      -3.60130000       2.12780000
H        0.94990000       1.75090000      -0.07030000
H        0.76530000      -0.40900000      -0.66490000
H        0.69890000      -0.63160000       2.23290000
H       -2.20050000      -0.53070000       2.17630000
H       -1.56460000       1.05200000       1.56990000
H       -2.11110000      -0.62800000      -0.72630000
H        0.46540000      -3.36010000       0.26890000
H       -2.61910000      -4.32070000       2.68690000
