13
Properties=species:S:1:pos:R:3 gdb_2981=T pbc="F F F"
O        0.17010000       1.59830000      -0.04190000
C        0.09960000       0.17780000       0.05010000
C        0.62710000      -0.47370000      -1.15000000
C        1.11490000      -0.97340000      -2.12830000
C        0.81500000      -0.31330000       1.30300000
C        0.10990000      -0.37770000       2.58460000
O        0.38110000      -1.56280000       1.82820000
H        1.01010000       1.82300000      -0.45640000
H       -0.96360000      -0.06640000       0.16070000
H        1.52330000      -1.42840000      -2.99700000
H        1.89620000      -0.16600000       1.29950000
H        0.66830000      -0.27740000       3.51350000
H       -0.93750000      -0.08370000       2.63480000
