22
Properties=species:S:1:pos:R:3 gdb_118193=T pbc="F F F"
C        0.07490000       1.53200000       0.13060000
C        0.05260000       0.00660000       0.12030000
N        0.56840000      -0.51490000      -1.15160000
H        0.02730000      -0.12450000      -1.92070000
H        2.28360000      -0.36780000      -1.50100000
C        0.60100000      -1.98830000      -1.28330000
C       -0.78450000      -2.62670000      -1.44490000
C        1.52520000      -2.36400000      -2.45710000
C        2.98940000      -1.92670000      -2.31890000
O        3.17600000      -0.72060000      -1.76800000
O        3.90490000      -2.60800000      -2.70060000
H        1.08860000       1.91060000      -0.02900000
H       -0.56860000       1.94260000      -0.65590000
H       -0.29030000       1.91330000       1.08830000
H        0.69650000      -0.38290000       0.91740000
H       -0.96720000      -0.34940000       0.33400000
H        1.05360000      -2.36150000      -0.35540000
H       -0.70610000      -3.71730000      -1.48760000
H       -1.44640000      -2.37390000      -0.61190000
H       -1.26070000      -2.29020000      -2.37360000
H        1.52880000      -3.44480000      -2.60970000
H        1.12880000      -1.91670000      -3.38020000
