18
Properties=species:S:1:pos:R:3 gdb_31270=T pbc="F F F"
C        0.29760000       0.61350000       0.54190000
O       -0.45490000       0.33880000      -0.64980000
C       -1.51760000      -0.48130000      -0.47590000
C       -1.59810000      -1.84530000      -0.27770000
C       -0.44180000      -2.77810000      -0.16330000
O        0.12380000      -2.69690000       1.15570000
C       -2.99110000      -2.15690000      -0.21250000
C       -3.69990000      -0.99380000      -0.37890000
N       -2.78800000       0.02830000      -0.52930000
H        1.17460000       1.18220000       0.22560000
H       -0.29350000       1.21720000       1.24260000
H        0.59880000      -0.31760000       1.03000000
H       -0.77880000      -3.80430000      -0.36960000
H        0.32180000      -2.52190000      -0.91320000
H        0.88770000      -3.28330000       1.17830000
H       -3.41280000      -3.14010000      -0.06600000
H       -4.75970000      -0.80280000      -0.41470000
H       -2.99480000       0.99680000      -0.70280000
