18
Properties=species:S:1:pos:R:3 gdb_10918=T pbc="F F F"
C       -0.20830000       1.52820000       0.00390000
C       -0.03870000       0.01780000      -0.05230000
C        1.09960000      -0.57790000      -0.98870000
O        1.94890000       0.31570000      -1.65380000
C        1.68380000      -1.26970000       0.25040000
O        2.01400000      -0.19060000       1.14820000
C        0.65550000      -0.68470000       1.13030000
C        0.06580000      -1.15260000       2.42060000
H        0.70950000       2.01250000       0.34830000
H       -0.44940000       1.92830000      -0.98540000
H       -1.01480000       1.81050000       0.68890000
H       -0.99040000      -0.47410000      -0.28230000
H        0.70250000      -1.26660000      -1.73810000
H        2.43020000       0.78830000      -0.96240000
H        2.27160000      -2.17740000       0.33790000
H       -0.23810000      -0.30240000       3.04140000
H       -0.82140000      -1.76720000       2.23710000
H        0.79300000      -1.74260000       2.98470000
