16
Properties=species:S:1:pos:R:3 gdb_132737=T pbc="F F F"
C       -0.05120000       1.53500000       0.01150000
C       -0.01090000       0.03110000      -0.01340000
C       -0.02300000      -0.69370000      -1.21880000
N       -0.11250000      -0.03770000      -2.43040000
C        0.00380000      -2.09750000      -1.15750000
C        0.04090000      -2.71040000       0.08000000
N        0.05660000      -2.04460000       1.24290000
C        0.03050000      -0.73480000       1.15000000
F        0.04670000      -0.07980000       2.31700000
H        0.83840000       1.97500000      -0.46010000
H       -0.92720000       1.91940000      -0.52510000
H       -0.09280000       1.90230000       1.03660000
H        0.20350000       0.91860000      -2.45720000
H        0.14910000      -0.56830000      -3.24640000
H       -0.00680000      -2.68880000      -2.06700000
H        0.06280000      -3.79460000       0.15200000
