19
Properties=species:S:1:pos:R:3 gdb_119112=T pbc="F F F"
C        0.07830000       1.46310000      -0.06970000
C        0.08670000      -0.04990000       0.00410000
O        1.10340000      -0.68950000       0.15780000
C       -1.24010000      -0.76930000      -0.15260000
C       -1.18630000      -2.18280000      -0.68830000
C       -0.76290000      -2.24460000      -2.15390000
O       -0.82110000      -3.60730000      -2.54600000
C       -2.34760000      -0.35780000       0.74000000
O       -2.32570000       0.05460000      -0.61800000
H        1.07290000       1.83660000       0.17500000
H       -0.19770000       1.77470000      -1.08270000
H       -0.66570000       1.90460000       0.59910000
H       -0.47800000      -2.76070000      -0.08820000
H       -2.17270000      -2.64600000      -0.59170000
H       -1.44320000      -1.62350000      -2.75700000
H        0.25380000      -1.83970000      -2.26370000
H       -0.51820000      -3.67100000      -3.45620000
H       -3.09910000      -1.10190000       0.99900000
H       -2.20050000       0.43010000       1.47710000
