15
Properties=species:S:1:pos:R:3 gdb_47179=T pbc="F F F"
N       -0.42420000       1.31550000      -0.27310000
C       -0.01230000       0.16360000       0.04430000
C       -0.87530000      -1.05340000      -0.19680000
N       -1.35950000      -1.63050000       1.04040000
C       -0.51620000      -2.14860000       1.95710000
C        0.83320000      -2.01880000       1.99600000
C        1.73520000      -1.16630000       1.23570000
O        2.93150000      -1.27450000       1.25440000
O        1.24080000      -0.04550000       0.53710000
H        0.28270000       2.01870000      -0.04660000
H       -1.72430000      -0.73990000      -0.80120000
H       -0.29170000      -1.80620000      -0.74810000
H       -2.34890000      -1.75950000       1.15350000
H       -0.99950000      -2.76030000       2.71400000
H        1.36730000      -2.62410000       2.71690000
