14
Properties=species:S:1:pos:R:3 gdb_132151=T pbc="F F F"
C       -0.03030000       1.49510000      -0.00550000
C       -0.00670000      -0.00320000      -0.01230000
C       -0.03770000      -0.72080000      -1.14430000
O       -0.01730000      -2.09040000      -1.18390000
C        0.03670000      -2.73490000      -0.01970000
F        0.04980000      -4.03080000      -0.22490000
C        0.07270000      -2.15770000       1.19030000
C        0.05320000      -0.70130000       1.29460000
O        0.08350000      -0.09290000       2.35450000
H        0.85940000       1.88400000       0.49990000
H       -0.07600000       1.90780000      -1.01630000
H       -0.89010000       1.85610000       0.56760000
H       -0.08170000      -0.31770000      -2.14730000
H        0.11600000      -2.76570000       2.08320000
