19
Properties=species:S:1:pos:R:3 gdb_90309=T pbc="F F F"
C       -0.12950000       1.52380000      -0.16460000
C       -0.01360000       0.00790000      -0.08620000
C        1.24420000      -0.59460000      -0.84180000
C        1.89630000      -0.66090000       0.51770000
C        2.95310000      -0.22250000       1.20300000
C        2.53830000       0.11770000       2.62250000
C        0.98940000       0.25440000       2.50590000
O        0.27880000       0.89130000       3.23400000
C        0.59860000      -0.55450000       1.25930000
H        0.82670000       2.00480000       0.07020000
H       -0.42390000       1.83870000      -1.17100000
H       -0.87350000       1.89770000       0.54480000
H       -0.96000000      -0.46390000      -0.36230000
H        1.01370000      -1.57410000      -1.27290000
H        1.72330000       0.02670000      -1.60360000
H        3.93120000       0.01780000       0.80210000
H        2.76890000      -0.66180000       3.36290000
H        2.97870000       1.04610000       3.00170000
H        0.11780000      -1.49160000       1.56330000
