17
Properties=species:S:1:pos:R:3 gdb_56075=T pbc="F F F"
C       -0.05730000       1.51870000       0.01090000
C        0.07300000       0.00700000       0.00130000
O        1.14820000      -0.54710000      -0.01230000
C       -1.23190000      -0.78100000       0.00970000
C       -1.00250000      -2.30220000      -0.00110000
C       -2.24810000      -3.05160000       0.00700000
C       -3.29510000      -3.65910000       0.01360000
C       -4.47120000      -4.34360000       0.02140000
C       -5.51570000      -4.94980000       0.02840000
H        0.93270000       1.97580000       0.00360000
H       -0.62730000       1.85800000      -0.86130000
H       -0.60980000       1.84830000       0.89790000
H       -1.81750000      -0.48500000       0.88910000
H       -1.83460000      -0.47520000      -0.85480000
H       -0.40540000      -2.57050000      -0.88030000
H       -0.38830000      -2.58020000       0.86330000
H       -6.43300000      -5.48390000       0.03450000
