18
Properties=species:S:1:pos:R:3 gdb_127000=T pbc="F F F"
C       -1.16110000       1.03310000      -0.08930000
C       -0.12730000       0.09700000       0.52360000
O        0.11200000      -1.05900000      -0.28740000
C       -0.78580000      -2.05490000      -0.20160000
C       -1.91970000      -2.27610000       0.55910000
C       -2.35340000      -3.56490000       0.14290000
N       -3.42830000      -4.28720000       0.66560000
N       -1.57490000      -4.09080000      -0.79200000
N       -0.60670000      -3.13910000      -0.98360000
H       -1.27960000       1.91930000       0.54250000
H       -0.84170000       1.35790000      -1.08350000
H       -2.13330000       0.54270000      -0.18090000
H        0.84620000       0.58900000       0.59520000
H       -0.41950000      -0.22130000       1.53160000
H       -2.35830000      -1.63560000       1.30450000
H       -4.25370000      -3.72080000       0.81050000
H       -3.64880000      -5.08290000       0.07920000
H        0.13660000      -3.29580000      -1.64020000
