14
Properties=species:S:1:pos:R:3 gdb_127542=T pbc="F F F"
C        0.06480000       1.32900000       0.00890000
N       -0.12550000      -0.10240000       0.00230000
N       -0.02800000      -0.81160000      -1.16040000
C        0.09490000      -2.03170000      -0.70060000
O        0.13170000      -3.29210000      -1.20280000
C        0.35580000      -4.10490000      -0.02210000
O        0.14600000      -3.30490000       1.16990000
C        0.10320000      -2.03910000       0.68180000
N       -0.01450000      -0.82410000       1.15610000
H        1.12730000       1.60010000       0.00420000
H       -0.41540000       1.73960000      -0.88010000
H       -0.40500000       1.73000000       0.90780000
H       -0.35570000      -4.93280000      -0.02220000
H        1.39260000      -4.46160000      -0.03020000
