15
Properties=species:S:1:pos:R:3 gdb_4519=T pbc="F F F"
N        0.15020000       1.34630000       0.10220000
C       -0.04880000      -0.02770000       0.03980000
C       -1.16850000      -0.80460000       0.09520000
C       -0.69510000      -2.16470000       0.07560000
N       -1.48350000      -3.31640000       0.19450000
C        0.66180000      -2.12040000      -0.00080000
N        1.60750000      -3.13920000      -0.04300000
O        1.07110000      -0.77260000      -0.00920000
H        0.97950000       1.63850000      -0.39940000
H       -0.65650000       1.87130000      -0.20640000
H       -2.19060000      -0.46730000       0.16170000
H       -2.30950000      -3.28750000      -0.39050000
H       -0.94100000      -4.14490000      -0.02190000
H        2.20310000      -3.10650000      -0.86480000
H        2.20400000      -3.17940000       0.77850000
