21
Properties=species:S:1:pos:R:3 gdb_67273=T pbc="F F F"
C       -0.01910000       1.54970000       0.01200000
C       -0.02360000       0.04800000       0.00300000
C        0.71630000      -0.86700000      -1.04840000
C        1.72520000      -1.27690000       0.04720000
C        0.65270000      -0.87970000       1.08560000
C       -0.60890000      -1.83010000       1.04220000
C       -0.47560000      -2.93770000      -0.02830000
C       -0.54530000      -1.81740000      -1.09160000
C       -1.25940000      -0.89400000      -0.03950000
H        1.00250000       1.94730000       0.04470000
H       -0.50330000       1.95450000      -0.88500000
H       -0.55570000       1.94400000       0.88360000
H        1.07790000      -0.50580000      -2.01270000
H        2.12660000      -2.29500000       0.05310000
H        2.56250000      -0.57200000       0.07640000
H        0.95610000      -0.53010000       2.07390000
H       -1.06740000      -2.05990000       2.00450000
H        0.38980000      -3.60790000      -0.00650000
H       -1.38720000      -3.54340000      -0.05910000
H       -0.94560000      -2.03560000      -2.08210000
H       -2.31040000      -0.60650000      -0.06910000
