14
Properties=species:S:1:pos:R:3 gdb_25984=T pbc="F F F"
N       -0.13970000       1.37950000      -0.02040000
C       -0.03150000       0.02930000       0.26670000
O        0.81200000      -0.44570000       0.99030000
N       -1.03030000      -0.73490000      -0.34790000
C       -1.13900000      -2.09870000      -0.12710000
C       -2.06110000      -2.89500000       0.46730000
N       -1.68760000      -4.22320000       0.31020000
C       -0.57420000      -4.15930000      -0.34400000
O       -0.17440000      -2.90970000      -0.66630000
H        0.67190000       1.90540000       0.26630000
H       -0.51030000       1.64720000      -0.91970000
H       -1.85250000      -0.26140000      -0.68770000
H       -2.95660000      -2.60950000       0.99550000
H        0.07160000      -4.96760000      -0.64870000
