16
Properties=species:S:1:pos:R:3 gdb_13839=T pbc="F F F"
N       -0.08060000       1.33300000       0.08770000
C       -0.00340000      -0.05390000      -0.02230000
O        1.05600000      -0.65640000       0.02990000
N       -1.20900000      -0.69090000      -0.14830000
C       -2.52480000      -0.08090000       0.03490000
C       -3.42280000      -1.28390000       0.15060000
C       -2.72990000      -2.41490000       0.06000000
C       -1.26240000      -2.15410000      -0.12830000
H        0.82250000       1.76580000      -0.03570000
H       -0.82830000       1.80650000      -0.39690000
H       -2.55570000       0.55620000       0.93190000
H       -2.81120000       0.55700000      -0.81890000
H       -4.49230000      -1.19070000       0.28880000
H       -3.13480000      -3.41760000       0.11020000
H       -0.87180000      -2.58540000      -1.06080000
H       -0.64210000      -2.55880000       0.68240000
