19
Properties=species:S:1:pos:R:3 gdb_64587=T pbc="F F F"
C        0.11920000       1.55180000      -0.00040000
C        0.03090000       0.04130000      -0.08240000
C       -1.18700000      -0.57700000       0.49860000
O       -2.08940000       0.02040000       1.03440000
C        0.63870000      -0.79210000      -1.23330000
C        1.62390000      -0.10940000      -2.16730000
C        2.74060000       0.40210000      -1.22310000
O        2.52500000      -0.19170000       0.06920000
C        1.29440000      -0.83940000       0.09170000
H        1.03230000       1.86720000       0.51110000
H        0.09370000       2.02810000      -0.98550000
H       -0.73970000       1.91390000       0.56900000
H       -1.21640000      -1.68950000       0.41540000
H        0.05360000      -1.62130000      -1.61480000
H        2.00780000      -0.84760000      -2.87750000
H        1.18230000       0.70570000      -2.74750000
H        3.74310000       0.11870000      -1.55870000
H        2.70930000       1.49160000      -1.12520000
H        1.27760000      -1.68720000       0.76700000
