22
Properties=species:S:1:pos:R:3 gdb_101373=T pbc="F F F"
C       -1.47530000       0.18960000      -2.28780000
O       -1.61640000      -0.84420000      -1.34250000
C       -1.29630000      -0.48040000      -0.00450000
C       -2.37250000       0.38800000       0.65040000
C       -1.12940000      -1.80650000       0.72730000
C        0.05310000      -2.74910000       0.38110000
C        0.41890000      -2.66900000       1.86240000
C        0.64990000      -1.27310000       2.26890000
N       -0.74940000      -1.74810000       2.18980000
H       -1.65390000      -0.24940000      -3.27290000
H       -2.19670000       1.00540000      -2.13580000
H       -0.46120000       0.62020000      -2.27200000
H       -0.34120000       0.07100000      -0.00900000
H       -2.45400000       1.36590000       0.16780000
H       -3.34520000      -0.11040000       0.59050000
H       -2.13140000       0.54770000       1.70510000
H       -2.08260000      -2.33930000       0.66500000
H       -0.27210000      -3.73590000       0.04970000
H        0.80610000      -2.37460000      -0.31870000
H        0.66520000      -3.51130000       2.50060000
H        0.95650000      -1.08580000       3.29340000
H        1.03070000      -0.55330000       1.54860000
