17
Properties=species:S:1:pos:R:3 gdb_68513=T pbc="F F F"
C        0.04860000       1.50730000      -0.04540000
C       -0.02130000       0.01330000       0.03810000
O        0.41550000      -0.71550000      -1.16450000
C       -0.28590000      -1.88250000      -0.64040000
C        0.46260000      -2.19930000       0.65840000
C        1.84530000      -1.61820000       0.78920000
C        0.66350000      -0.76720000       1.17230000
C       -1.32830000      -0.83400000      -0.14150000
O       -2.50470000      -0.67610000      -0.10080000
H        1.08690000       1.84370000      -0.12560000
H       -0.51080000       1.87470000      -0.90950000
H       -0.38340000       1.94770000       0.85850000
H       -0.48810000      -2.65640000      -1.37740000
H        0.12580000      -3.01310000       1.28780000
H        2.43030000      -1.99920000       1.61890000
H        2.41210000      -1.37870000      -0.10140000
H        0.48330000      -0.47640000       2.19960000
