17
Properties=species:S:1:pos:R:3 gdb_46270=T pbc="F F F"
O       -0.05890000      -0.01030000      -0.09890000
C       -0.03640000       1.19250000      -0.04560000
N       -1.01110000       2.15520000      -0.02660000
C       -0.09680000       3.30400000       0.01470000
C        1.06880000       2.28060000       0.02460000
C        2.18420000       2.28590000       1.09480000
C        3.16950000       2.26150000      -0.07070000
C        2.88090000       1.15370000      -0.99920000
N        2.05620000       2.38270000      -1.10270000
H       -2.01630000       2.09140000      -0.08700000
H       -0.11570000       3.93050000      -0.88150000
H       -0.19110000       3.92060000       0.91450000
H        2.20370000       3.22150000       1.65800000
H        2.22050000       1.44460000       1.79230000
H        4.06930000       2.86330000      -0.14340000
H        3.54290000       1.03410000      -1.85100000
H        2.40860000       0.24160000      -0.64680000
