14
Properties=species:S:1:pos:R:3 gdb_48821=T pbc="F F F"
N        0.08850000       1.29610000       0.23640000
C        0.06360000       0.05930000      -0.00870000
O        1.12180000      -0.70000000      -0.42330000
C        0.69220000      -1.99670000      -0.88040000
C       -0.75400000      -2.12530000      -0.45230000
O       -0.92590000      -1.94910000       0.93740000
C       -1.15030000      -0.80510000       0.08620000
C       -2.54500000      -0.25640000       0.03260000
O       -3.51850000      -0.95020000       0.16780000
H        1.01470000       1.68900000       0.05960000
H        0.79090000      -2.04720000      -1.97060000
H        1.33600000      -2.75170000      -0.42080000
H       -1.45460000      -2.78410000      -0.95620000
H       -2.60030000       0.83370000      -0.14890000
