17
Properties=species:S:1:pos:R:3 gdb_65409=T pbc="F F F"
C        0.82870000       1.18050000      -0.00460000
C        0.09170000      -0.14300000       0.11880000
C        0.82190000      -1.40730000       0.47670000
N       -0.12820000      -0.82560000       1.40420000
C        0.30190000      -0.21940000       2.67490000
C        1.73570000      -0.01100000       2.88800000
C        2.91650000       0.12080000       3.07560000
C       -1.05240000      -0.24930000      -0.77280000
N       -1.94490000      -0.31220000      -1.50480000
H        1.71040000       1.20160000       0.63590000
H        1.14410000       1.33360000      -1.04070000
H        0.17360000       2.01350000       0.26920000
H        0.52960000      -2.35470000       0.03330000
H        1.88340000      -1.29280000       0.68650000
H       -0.23680000       0.72770000       2.79230000
H       -0.06850000      -0.88060000       3.46730000
H        3.95630000       0.25050000       3.25140000
