15
Properties=species:S:1:pos:R:3 gdb_34063=T pbc="F F F"
N       -0.09100000      -1.08100000      -0.11910000
C       -0.03740000       0.07380000      -0.06910000
C       -0.05280000       1.50030000       0.02140000
C       -1.38820000       2.33310000       0.30630000
C       -0.52710000       3.49460000      -0.20570000
C        0.18880000       4.11870000       0.75030000
C        1.53610000       3.42090000       0.86140000
N        1.33960000       2.16460000       0.07750000
C        0.40800000       2.51890000      -0.96020000
H       -2.16200000       1.94410000      -0.36290000
H       -1.76210000       2.40170000       1.32930000
H       -0.26790000       4.57300000       1.62420000
H        2.41850000       3.91560000       0.43650000
H        1.74570000       3.21290000       1.91600000
H        0.61330000       2.42330000      -2.01960000
