15
Properties=species:S:1:pos:R:3 gdb_56101=T pbc="F F F"
C       -0.01720000       1.44560000      -0.00260000
C        0.06610000      -0.06890000       0.00840000
O        1.10540000      -0.67580000       0.00650000
C       -1.28940000      -0.77170000       0.02100000
O       -1.07970000      -2.17930000      -0.01190000
C       -2.18290000      -2.93310000       0.00860000
N       -3.36080000      -2.46540000       0.05410000
C       -1.85210000      -4.34710000      -0.02810000
N       -1.66880000      -5.48770000      -0.05540000
H        0.98790000       1.86390000       0.05340000
H       -0.50600000       1.79290000      -0.92020000
H       -0.61790000       1.81060000       0.83790000
H       -1.85520000      -0.49180000       0.91840000
H       -1.89510000      -0.45620000      -0.83750000
H       -4.05820000      -3.20590000       0.06280000
