16
Properties=species:S:1:pos:R:3 gdb_130702=T pbc="F F F"
O        0.03650000      -0.03290000      -0.14660000
C        0.00480000       1.17220000      -0.02650000
N       -1.06240000       2.02260000       0.16090000
N       -0.71510000       3.35240000       0.27710000
C        0.57780000       3.36190000       0.13810000
N        1.06730000       2.08750000      -0.04420000
C        1.42940000       4.56170000       0.12930000
C        1.25400000       5.59890000      -0.97250000
C        0.81900000       5.90840000       0.42880000
H       -2.02010000       1.73990000       0.26780000
H        2.02320000       1.81390000      -0.19090000
H        2.44530000       4.38890000       0.47050000
H        2.14870000       6.07260000      -1.36100000
H        0.48320000       5.40020000      -1.70790000
H       -0.24360000       5.91820000       0.63850000
H        1.41070000       6.60160000       1.01520000
