16
Properties=species:S:1:pos:R:3 gdb_54064=T pbc="F F F"
C        0.16200000       1.29310000       0.69660000
C        0.01110000       0.08290000      -0.19020000
O        0.81360000      -0.23070000      -1.03060000
C       -1.29360000      -0.76410000      -0.03140000
C       -1.11110000      -2.19730000      -0.56560000
C       -2.41750000      -2.85390000      -0.95930000
O       -2.69720000      -4.00070000      -0.74020000
C       -1.81770000      -0.73850000       1.33320000
N       -2.21650000      -0.71800000       2.41790000
H        1.02570000       1.87520000       0.37540000
H       -0.74330000       1.90920000       0.67260000
H        0.29280000       0.97550000       1.73660000
H       -2.02840000      -0.24200000      -0.66630000
H       -0.48670000      -2.11340000      -1.46480000
H       -0.58550000      -2.83270000       0.15020000
H       -3.11870000      -2.18320000      -1.51240000
