19
Properties=species:S:1:pos:R:3 gdb_95192=T pbc="F F F"
C       -0.05800000       1.44590000      -0.03920000
N        0.00670000      -0.00420000      -0.09640000
C       -1.22840000      -0.75880000       0.10470000
C       -1.18940000      -2.07060000      -0.66750000
N       -0.04000000      -2.89240000      -0.25570000
C        1.07660000      -2.95460000      -1.19650000
C        1.18040000      -2.13160000       0.03960000
C        1.22690000      -0.62560000      -0.03780000
O        2.29130000      -0.03130000      -0.02090000
H        0.94770000       1.83520000      -0.19210000
H       -0.72690000       1.82920000      -0.81790000
H       -0.42870000       1.79070000       0.93530000
H       -1.40320000      -0.94910000       1.17440000
H       -2.06300000      -0.14820000      -0.25420000
H       -2.10630000      -2.63920000      -0.47770000
H       -1.15700000      -1.84540000      -1.74230000
H        1.59670000      -3.90640000      -1.25550000
H        0.97600000      -2.42810000      -2.14390000
H        1.77490000      -2.51410000       0.86540000
