17
Properties=species:S:1:pos:R:3 gdb_34502=T pbc="F F F"
C        0.09760000      -1.19520000       0.02150000
C        0.00140000       0.00690000      -0.00140000
C       -0.05180000       1.41550000      -0.05390000
C       -1.13090000       2.21440000       0.06980000
C       -0.71080000       3.63630000       0.02530000
C        0.48830000       4.09460000       0.90450000
C        1.33200000       2.91830000       1.37570000
C        1.19160000       2.29880000      -0.07070000
C        0.68430000       3.70150000      -0.53950000
H        0.16440000      -2.25430000       0.04690000
H       -2.14960000       1.88220000       0.22130000
H       -1.42090000       4.41970000      -0.21170000
H        0.46410000       5.08320000       1.34740000
H        2.36070000       3.24210000       1.55240000
H        0.98600000       2.30880000       2.21660000
H        2.08470000       1.86090000      -0.51070000
H        0.99170000       4.27480000      -1.40550000
