19
Properties=species:S:1:pos:R:3 gdb_71857=T pbc="F F F"
C       -0.04210000       1.51460000       0.02350000
C        0.01280000       0.01530000      -0.03930000
C        0.82030000      -0.79810000      -1.05230000
C       -0.15360000      -1.99700000      -0.80930000
C        0.42200000      -2.94420000       0.24400000
C        0.52160000      -2.06020000       1.49930000
O        1.09190000      -2.33670000       2.52580000
C       -0.28050000      -0.82610000       1.22540000
C       -1.09120000      -1.00950000      -0.04010000
H        0.90650000       1.93120000       0.38090000
H       -0.23820000       1.93610000      -0.96920000
H       -0.83290000       1.85980000       0.69700000
H        0.70330000      -0.38010000      -2.05640000
H        1.88600000      -0.96780000      -0.85860000
H       -0.55100000      -2.48180000      -1.69940000
H       -0.26750000      -3.76850000       0.46710000
H        1.39090000      -3.37970000      -0.01480000
H       -0.67170000      -0.26610000       2.06600000
H       -2.16670000      -0.90400000      -0.10350000
