19
Properties=species:S:1:pos:R:3 gdb_49591=T pbc="F F F"
O       -0.06980000      -0.03390000      -0.00320000
C       -0.01030000       1.16930000       0.00820000
C        1.27510000       1.97170000      -0.00060000
C        1.41000000       2.89460000      -1.22280000
C        0.44240000       4.03080000      -1.46650000
C        1.73440000       4.29660000      -0.73650000
C        1.75580000       4.27760000       0.78010000
C        0.48490000       3.99310000       1.53950000
C        1.44490000       2.86370000       1.24020000
H       -0.93770000       1.78520000       0.02690000
H        2.09350000       1.24570000      -0.02120000
H        1.89910000       2.47040000      -2.09250000
H        0.37240000       4.38170000      -2.49080000
H       -0.49910000       4.08490000      -0.93450000
H        2.49060000       4.89490000      -1.23090000
H        2.52590000       4.86370000       1.26780000
H        0.44400000       4.31820000       2.57390000
H       -0.47120000       4.05990000       1.03590000
H        1.95820000       2.41790000       2.08480000
