19
Properties=species:S:1:pos:R:3 gdb_96666=T pbc="F F F"
C       -0.08930000       1.46100000      -0.01070000
N        0.00300000       0.01660000      -0.01010000
C        0.60700000      -0.59810000       0.91310000
C        1.33720000      -0.05550000       2.11820000
O        0.66170000      -1.96200000       0.91770000
C       -0.02570000      -2.64040000      -0.14320000
C        0.88890000      -2.84470000      -1.35290000
C       -0.49020000      -3.91930000       0.41240000
N       -0.86980000      -4.93470000       0.81070000
H        0.43410000       1.96230000       0.81400000
H        0.31020000       1.84960000      -0.95450000
H       -1.14410000       1.75690000       0.02970000
H        0.63330000       0.41500000       2.81160000
H        1.84970000      -0.86430000       2.63830000
H        2.06900000       0.70070000       1.82320000
H       -0.89330000      -2.04080000      -0.43550000
H        1.16030000      -1.86790000      -1.75650000
H        1.79160000      -3.38620000      -1.06090000
H        0.36900000      -3.41680000      -2.12600000
