21
Properties=species:S:1:pos:R:3 gdb_93510=T pbc="F F F"
C       -0.16420000       1.52780000      -0.04850000
C       -0.01210000       0.00660000       0.01620000
C        0.76560000      -0.46330000      -1.20960000
O        1.02450000      -1.87080000      -1.23500000
C        1.36970000      -2.48350000      -0.06910000
N        2.03540000      -3.55890000      -0.04420000
C        0.80420000      -1.90160000       1.20480000
N        0.72400000      -0.44410000       1.19890000
C        0.17630000       0.02880000       2.46210000
H        0.80570000       2.01720000       0.08560000
H       -0.56850000       1.82220000      -1.02200000
H       -0.84920000       1.90260000       0.71460000
H       -1.02210000      -0.45320000      -0.01190000
H        0.20460000      -0.25400000      -2.12390000
H        1.72340000       0.07210000      -1.25230000
H        2.28340000      -3.83540000      -0.99700000
H       -0.19750000      -2.35800000       1.35270000
H        1.43480000      -2.23760000       2.02940000
H        0.76970000      -0.38280000       3.28390000
H        0.23170000       1.11720000       2.52570000
H       -0.87600000      -0.27720000       2.61950000
