21
Properties=species:S:1:pos:R:3 gdb_76325=T pbc="F F F"
C        0.13660000       1.71520000       0.02460000
C        0.09010000       0.19360000      -0.00310000
C        0.69090000      -0.60430000      -1.21840000
O        1.53330000       0.12640000      -2.07880000
C        1.39600000      -1.60650000      -0.22050000
C        0.60000000      -2.90920000      -0.05300000
C        2.88160000      -1.88610000      -0.42660000
C        1.05820000      -0.59290000       0.89590000
O        1.49330000      -0.41110000       1.99830000
H        1.13830000       2.09720000      -0.19490000
H       -0.55110000       2.14520000      -0.70890000
H       -0.14080000       2.08070000       1.01730000
H       -0.93240000      -0.15310000       0.19190000
H       -0.04960000      -1.07140000      -1.87080000
H        2.20260000       0.58380000      -1.55930000
H        0.71650000      -3.53880000      -0.94200000
H        0.95660000      -3.47220000       0.81520000
H       -0.46980000      -2.72160000       0.08620000
H        3.46540000      -0.97020000      -0.55650000
H        3.28680000      -2.40780000       0.44560000
H        3.04150000      -2.51110000      -1.31080000
