9
Properties=species:S:1:pos:R:3 gdb_23630=T pbc="F F F"
F        0.08610000       0.08440000       0.00200000
C       -0.06020000       1.37800000       0.01140000
N       -1.18990000       1.93160000       0.02960000
C       -1.22020000       3.35210000       0.03790000
O       -2.24950000       3.96010000       0.05540000
N        0.04150000       4.03280000       0.02430000
C        1.09320000       3.34050000       0.00620000
O        1.15230000       1.96070000      -0.00190000
H        2.09570000       3.75520000      -0.00520000
