18
Properties=species:S:1:pos:R:3 gdb_4911=T pbc="F F F"
C       -0.11210000       1.59470000       0.05570000
C        0.10300000       0.07560000      -0.05040000
C        0.73190000      -0.52190000       1.17350000
C        1.96750000      -1.07700000       1.27900000
O        2.20710000      -1.50440000       2.55170000
C        1.09480000      -1.21670000       3.28700000
C        1.12440000      -1.59930000       4.72330000
C        0.16610000      -0.61670000       2.49530000
H        0.84020000       2.11320000       0.20360000
H       -0.57960000       1.98850000      -0.85240000
H       -0.75930000       1.84400000       0.90260000
H       -0.86310000      -0.40940000      -0.24210000
H        0.73150000      -0.14350000      -0.92120000
H        2.76380000      -1.24150000       0.57130000
H        1.94060000      -1.09850000       5.25660000
H        0.18260000      -1.32030000       5.20100000
H        1.26640000      -2.67870000       4.84990000
H       -0.81170000      -0.28220000       2.80810000
