18
Properties=species:S:1:pos:R:3 gdb_69064=T pbc="F F F"
C       -0.03210000       1.56600000      -0.00530000
C        0.03180000       0.05760000      -0.00950000
C       -0.80200000      -0.75580000       0.94850000
C        0.71270000      -0.77580000       1.10270000
C        1.48750000      -1.91790000       0.43000000
C        1.14620000      -1.75330000      -1.03360000
C        0.39350000      -0.67700000      -1.26290000
C        1.28140000      -0.14450000       2.25520000
N        1.74810000       0.36680000       3.18340000
H        0.88710000       2.00150000      -0.40970000
H       -0.87020000       1.91670000      -0.61770000
H       -0.17040000       1.95390000       1.00750000
H       -1.34860000      -0.22040000       1.71770000
H       -1.27900000      -1.66110000       0.58810000
H        2.56500000      -1.81810000       0.60880000
H        1.19440000      -2.89860000       0.82410000
H        1.48050000      -2.45800000      -1.78580000
H        0.03970000      -0.34860000      -2.23380000
