17
Properties=species:S:1:pos:R:3 gdb_38882=T pbc="F F F"
C       -0.02070000       1.58180000       0.02630000
C        1.50540000       1.73880000      -0.03120000
O        1.75440000       1.00270000      -1.24070000
C        1.39230000      -0.25120000      -0.68880000
O        2.36250000      -0.43150000       0.31960000
C        2.12580000       0.76770000       1.07720000
C        1.07920000       0.33590000       2.10710000
O        0.06810000      -0.39550000       1.40330000
C       -0.00040000       0.03580000       0.05030000
H       -0.52850000       1.98850000       0.90220000
H       -0.46260000       2.00190000      -0.87840000
H        1.93490000       2.73720000      -0.08760000
H        1.43840000      -1.05080000      -1.42520000
H        3.05840000       1.12420000       1.51580000
H        1.52420000      -0.35090000       2.83250000
H        0.65100000       1.18790000       2.65560000
H       -0.85210000      -0.46830000      -0.40470000
