16
Properties=species:S:1:pos:R:3 gdb_51824=T pbc="F F F"
O       -0.01600000       0.00570000       0.00520000
C        0.01320000       1.18820000       0.13910000
O        1.12370000       1.92120000      -0.13420000
C        1.01250000       3.31960000      -0.00940000
C        2.39420000       3.92300000       0.14670000
C        2.28390000       5.44890000       0.04110000
N        1.47450000       5.88650000      -1.09180000
C        0.65850000       5.06410000      -1.58860000
O        0.37120000       3.78770000      -1.19330000
H       -0.82880000       1.80530000       0.50410000
H        0.36170000       3.56730000       0.84200000
H        2.82780000       3.60760000       1.09950000
H        3.02440000       3.52950000      -0.65720000
H        1.85640000       5.87620000       0.95820000
H        3.28040000       5.88900000      -0.06140000
H        0.04940000       5.31870000      -2.45260000
