16
Properties=species:S:1:pos:R:3 gdb_72780=T pbc="F F F"
C       -0.21220000       1.52710000      -0.13330000
C       -0.06170000       0.00340000      -0.10550000
C        0.96710000      -0.55380000      -1.13920000
O        1.93010000      -0.82060000      -0.03770000
C        0.89560000      -0.63130000       0.83850000
N        0.53540000      -1.21920000       1.89880000
C       -0.92970000      -0.99610000       1.93940000
C       -1.34690000      -0.64920000       0.46660000
O       -2.40770000      -0.83700000      -0.05200000
H        0.76090000       2.01000000      -0.26250000
H       -0.86470000       1.82050000      -0.96150000
H       -0.65530000       1.90420000       0.79290000
H        0.70240000      -1.49310000      -1.62900000
H        1.37070000       0.17080000      -1.84760000
H       -1.43770000      -1.90380000       2.27740000
H       -1.22820000      -0.18350000       2.61510000
