18
Properties=species:S:1:pos:R:3 gdb_23604=T pbc="F F F"
O       -0.21610000       1.45550000      -0.06610000
N       -0.00840000       0.06660000       0.02040000
C       -1.10890000      -0.55910000      -0.00600000
C       -2.56970000      -0.20670000      -0.19260000
C       -2.83160000      -1.72300000      -0.45820000
C       -1.36470000      -2.05830000      -0.01060000
C       -0.51620000      -2.90560000      -0.91800000
C        0.61600000      -3.69290000      -0.41860000
O       -0.62290000      -4.32280000      -0.75310000
H        0.68460000       1.79650000      -0.04990000
H       -3.03810000       0.17530000       0.72010000
H       -2.78670000       0.49270000      -1.00370000
H       -3.62350000      -2.19130000       0.12710000
H       -2.99830000      -1.94210000      -1.51550000
H       -1.33910000      -2.48130000       1.00000000
H       -0.48750000      -2.57980000      -1.95930000
H        1.45110000      -3.91820000      -1.08000000
H        0.85770000      -3.66890000       0.64310000
