15
Properties=species:S:1:pos:R:3 gdb_129461=T pbc="F F F"
N        0.36540000       0.10900000      -0.85650000
C       -0.16840000       0.19940000       0.38910000
O        0.11420000       1.07150000       1.18330000
C       -1.22890000      -0.87300000       0.73210000
C       -0.92110000      -2.25940000       0.28610000
C       -0.55720000      -3.39760000       0.93630000
C       -0.39580000      -4.34570000      -0.10930000
N       -0.63590000      -3.83570000      -1.29040000
O       -0.97850000      -2.50290000      -1.04210000
H        1.04600000       0.79790000      -1.13120000
H        0.12740000      -0.63510000      -1.49050000
H       -1.34720000      -0.84950000       1.81510000
H       -2.17610000      -0.54630000       0.28540000
H       -0.42380000      -3.53840000       1.99560000
H       -0.11220000      -5.38650000      -0.03920000
