17
Properties=species:S:1:pos:R:3 gdb_30026=T pbc="F F F"
C       -0.07010000       1.57100000       0.03670000
C       -0.00250000       0.03990000       0.00050000
C        0.79130000      -0.52160000      -1.16960000
C        1.83150000      -1.25790000      -0.74100000
C        1.83110000      -1.27700000       0.70900000
C        2.43840000      -1.71720000       1.86240000
N        1.75410000      -1.24410000       2.95950000
C        0.74910000      -0.53100000       2.48420000
N        0.75140000      -0.52050000       1.12540000
H        0.93620000       1.99750000       0.03960000
H       -0.60640000       1.94400000      -0.84080000
H       -0.59950000       1.91590000       0.93000000
H       -1.02310000      -0.36690000       0.00350000
H        0.51780000      -0.31560000      -2.19540000
H        2.55920000      -1.76380000      -1.35970000
H        3.31330000      -2.33900000       1.97100000
H        0.00740000      -0.01870000       3.07820000
