18
Properties=species:S:1:pos:R:3 gdb_96844=T pbc="F F F"
C       -0.08870000       1.44540000       0.02690000
N       -0.10110000      -0.00660000       0.07000000
C        0.53000000      -0.60330000       0.97790000
N        0.58180000      -1.98870000       1.11150000
C        1.34600000      -2.39960000       2.18000000
N        1.65090000      -3.55210000       2.61550000
C        1.81980000      -1.10290000       2.82440000
C        3.33240000      -0.98440000       2.91510000
O        1.27190000      -0.06220000       1.98650000
H        0.46210000       1.91550000       0.84960000
H        0.35300000       1.77770000      -0.92000000
H       -1.12000000       1.81620000       0.04220000
H        0.11410000      -2.58730000       0.45150000
H        1.24040000      -4.29810000       2.05290000
H        1.36800000      -1.00270000       3.81790000
H        3.78370000      -1.05170000       1.92130000
H        3.61480000      -0.03060000       3.36740000
H        3.71530000      -1.80330000       3.52880000
