16
Properties=species:S:1:pos:R:3 gdb_123910=T pbc="F F F"
C       -0.02980000       1.43710000       0.09040000
C        1.42830000       1.95930000       0.01670000
N        2.29990000       1.41650000       1.06220000
C        1.97900000       0.08950000       1.36240000
C        0.91130000      -0.58240000       0.80840000
N        1.01410000      -1.83020000       1.33260000
N        2.08260000      -1.92370000       2.15740000
N        2.66440000      -0.75280000       2.17850000
N       -0.11820000      -0.03430000       0.03900000
H       -0.48690000       1.76850000       1.03000000
H       -0.62090000       1.84920000      -0.73130000
H        1.84510000       1.68500000      -0.96200000
H        1.43780000       3.05070000       0.07780000
H        2.37530000       2.00560000       1.88140000
H        0.43150000      -2.63700000       1.17970000
H       -0.12980000      -0.37620000      -0.91630000
