19
Properties=species:S:1:pos:R:3 gdb_69157=T pbc="F F F"
C       -0.04910000       1.62090000       0.03160000
C        0.02240000       0.09610000       0.06030000
C       -1.35230000      -0.52730000      -0.21680000
C        1.07250000      -0.61680000      -0.85230000
O        1.15230000      -0.69450000      -2.04870000
C        1.75390000      -1.30100000       0.28130000
C        2.15790000      -0.25390000       1.33180000
C        0.73030000      -0.59820000       1.25170000
O        0.09390000      -1.10140000       2.35940000
H        0.91090000       2.08530000       0.27280000
H       -0.34150000       1.96300000      -0.96650000
H       -0.79140000       1.99310000       0.74650000
H       -1.71820000      -0.20950000      -1.19660000
H       -1.31200000      -1.62320000      -0.22720000
H       -2.08190000      -0.21170000       0.53800000
H        2.20590000      -2.28540000       0.28170000
H        2.67340000      -0.69620000       2.17880000
H        2.54550000       0.71500000       1.03130000
H       -0.68150000      -1.59630000       2.07060000
