18
Properties=species:S:1:pos:R:3 gdb_96930=T pbc="F F F"
C       -0.01010000       1.38800000       0.16150000
N        0.13440000      -0.05400000       0.02690000
C        0.55170000      -0.72780000       0.98950000
O        0.97060000      -0.31140000       2.27670000
C        1.44460000      -1.65710000       2.54940000
C        0.26360000      -2.55180000       2.58570000
O       -0.97280000      -2.14780000       3.06020000
C        0.87220000      -2.16570000       1.21780000
C        1.34120000      -3.14150000       0.18080000
H        0.53010000       1.87720000      -0.65580000
H       -1.06720000       1.65310000       0.04850000
H        0.35360000       1.78720000       1.11540000
H        2.41440000      -1.74900000       3.02230000
H        0.46320000      -3.59000000       2.83890000
H       -0.94200000      -1.18550000       3.14170000
H        0.52690000      -3.38620000      -0.50860000
H        2.16690000      -2.73100000      -0.40900000
H        1.68080000      -4.07310000       0.64320000
