19
Properties=species:S:1:pos:R:3 gdb_71018=T pbc="F F F"
O       -0.08900000       1.41330000       0.02950000
C       -0.01320000       0.02690000       0.00120000
C        0.32170000      -0.77180000      -1.35490000
C       -0.39120000      -1.88160000      -0.55450000
C       -0.77190000      -3.34990000      -0.31690000
O       -0.24100000      -3.22920000       1.04830000
C        0.58820000      -2.12400000       0.58240000
C        0.75970000      -0.70410000       1.15640000
C       -1.32050000      -0.78390000       0.02080000
H        0.80530000       1.76900000       0.06710000
H       -0.23810000      -0.33380000      -2.18350000
H        1.36590000      -0.94070000      -1.63350000
H       -1.83360000      -3.61190000      -0.32010000
H       -0.19710000      -4.08480000      -0.89570000
H        1.55090000      -2.53670000       0.24880000
H        1.81230000      -0.41650000       1.24480000
H        0.26700000      -0.52370000       2.11480000
H       -1.80150000      -0.96160000       0.98500000
H       -2.04250000      -0.43250000      -0.72000000
