18
Properties=species:S:1:pos:R:3 gdb_23524=T pbc="F F F"
C       -0.11010000       1.60180000       0.00730000
C        0.03070000       0.08940000       0.02180000
C        1.19270000      -0.63570000      -0.77660000
C        2.43740000      -0.05950000      -0.08410000
C        2.12120000      -0.07690000       1.21660000
C        0.70130000      -0.66630000       1.24230000
C        0.91280000      -1.78320000       0.21250000
N        0.77260000      -3.03310000       0.24650000
O        1.02540000      -3.61450000      -1.02090000
H        0.83260000       2.09970000       0.24440000
H       -0.44140000       1.94450000      -0.97880000
H       -0.86130000       1.92270000       0.73690000
H       -0.92840000      -0.38450000      -0.21740000
H        1.18120000      -0.76550000      -1.85530000
H        3.35410000       0.23860000      -0.57170000
H        2.70940000       0.20410000       2.07800000
H        0.19590000      -0.82280000       2.19250000
H        0.88620000      -4.54950000      -0.83760000
