16
Properties=species:S:1:pos:R:3 gdb_24688=T pbc="F F F"
C        0.04990000       1.34580000      -0.19830000
C        1.46180000       1.87800000       0.17130000
C        2.12660000       0.62180000       0.66930000
C        3.41300000       0.30750000       1.05380000
C        3.65710000      -0.99450000       1.51410000
C        2.60290000      -1.89660000       1.56930000
N        1.34090000      -1.61290000       1.19850000
C        1.15430000      -0.38440000       0.76560000
O       -0.07530000       0.02200000       0.36570000
H       -0.76160000       1.95610000       0.20330000
H       -0.07900000       1.26290000      -1.28310000
H        1.96370000       2.32680000      -0.69070000
H        1.41220000       2.64500000       0.95290000
H        4.21320000       1.03980000       1.00610000
H        4.64940000      -1.29810000       1.82550000
H        2.76890000      -2.90910000       1.92810000
