18
Properties=species:S:1:pos:R:3 gdb_45217=T pbc="F F F"
O        0.06780000       0.07070000      -0.67820000
C        0.02900000       1.18010000      -0.21360000
C       -1.23690000       1.93000000       0.25850000
N       -0.78730000       3.10730000       0.98970000
C       -0.29210000       2.85620000       2.38230000
C        1.16010000       3.17090000       1.96630000
C        1.92090000       1.93920000       1.41690000
C        1.21720000       2.11130000       0.02120000
C        0.60250000       3.43910000       0.53560000
H       -1.81440000       2.21950000      -0.63090000
H       -1.87990000       1.28630000       0.86490000
H       -0.73430000       3.56170000       3.09320000
H       -0.46270000       1.83790000       2.75730000
H        1.71940000       3.89330000       2.55880000
H        2.99370000       2.12260000       1.32870000
H        1.77310000       0.98600000       1.93350000
H        1.88960000       2.10900000      -0.83700000
H        0.71180000       4.35990000      -0.03980000
