18
Properties=species:S:1:pos:R:3 gdb_74106=T pbc="F F F"
C       -0.25450000       1.53330000       0.01630000
C        0.01080000       0.05520000      -0.00180000
C       -0.13240000      -0.67870000      -1.11760000
C        0.08690000      -2.13250000      -1.18030000
O       -0.29230000      -2.81340000      -2.11570000
C        0.78910000      -2.75070000      -0.00790000
N        2.09630000      -2.13400000       0.34300000
C        0.95770000      -1.95630000       1.24300000
C        0.40210000      -0.55140000       1.32480000
H        0.65790000       2.08420000       0.27750000
H       -0.60960000       1.89410000      -0.95140000
H       -1.00090000       1.78980000       0.77890000
H       -0.47220000      -0.22290000      -2.04310000
H        0.69760000      -3.83110000       0.04660000
H        2.71400000      -2.86030000       0.69660000
H        0.96050000      -2.50930000       2.17970000
H        1.13720000       0.09970000       1.81740000
H       -0.48160000      -0.54400000       1.97970000
