17
Properties=species:S:1:pos:R:3 gdb_39894=T pbc="F F F"
C        0.02660000       1.48120000       0.00220000
O        1.18860000       0.62030000       0.01300000
C       -0.08590000       0.02930000       0.00810000
C       -0.57220000      -0.90620000       1.12640000
C       -2.06300000      -0.98200000       0.67960000
O       -2.00120000      -0.96290000      -0.75770000
C       -0.58760000      -0.89010000      -1.10250000
C        0.05970000      -2.19840000      -0.68390000
C        0.06810000      -2.20240000       0.65560000
H       -0.13510000       2.04650000       0.91900000
H       -0.12970000       2.03760000      -0.92060000
H       -0.40580000      -0.59830000       2.15710000
H       -2.56010000      -1.89640000       1.02210000
H       -2.63190000      -0.11140000       1.02890000
H       -0.49890000      -0.56640000      -2.13710000
H        0.35620000      -2.99370000      -1.35430000
H        0.37570000      -3.00630000       1.31200000
