16
Properties=species:S:1:pos:R:3 gdb_27418=T pbc="F F F"
C       -0.36170000       1.44830000       0.08030000
C       -0.01630000      -0.01200000      -0.07780000
N       -0.20870000      -0.55400000      -1.23380000
C        0.10820000      -1.88060000      -1.49430000
N        0.87470000      -2.20820000      -2.45640000
C       -0.60450000      -2.84200000      -0.59740000
N       -0.40470000      -2.91930000       0.66370000
C        0.36740000      -2.01380000       1.35800000
C        0.51750000      -0.69210000       1.09140000
H        0.52660000       2.01530000       0.38250000
H       -0.73710000       1.84790000      -0.86160000
H       -1.11300000       1.59050000       0.86490000
H        0.92790000      -3.22670000      -2.53070000
H       -1.32280000      -3.53110000      -1.04690000
H        0.77230000      -2.41210000       2.28500000
H        0.97020000      -0.07280000       1.86110000
