19
Properties=species:S:1:pos:R:3 gdb_38358=T pbc="F F F"
C        0.16090000       1.47720000      -0.37480000
C        1.65680000       1.28560000      -0.04690000
C        2.15020000       1.91280000       1.24770000
O        1.22470000       1.82970000       2.30970000
C        1.04490000       0.54600000       2.91070000
C       -0.24390000      -0.14130000       2.50820000
C       -0.68600000      -0.36470000       1.26880000
C        0.03830000      -0.02840000      -0.00030000
O        1.47960000      -0.14190000       0.11470000
H       -0.37820000       2.16630000       0.27360000
H       -0.04640000       1.69540000      -1.42310000
H        2.36280000       1.51030000      -0.85730000
H        3.10580000       1.43620000       1.52210000
H        2.33650000       2.98220000       1.09080000
H        1.90820000      -0.09650000       2.69670000
H        1.02040000       0.72390000       3.99210000
H       -0.87360000      -0.46090000       3.33550000
H       -1.66120000      -0.82990000       1.14060000
H       -0.32600000      -0.66560000      -0.81470000
