19
Properties=species:S:1:pos:R:3 gdb_2175=T pbc="F F F"
C        0.14060000       1.61280000      -0.16510000
C       -0.01330000       0.09690000       0.00200000
C        0.67560000      -0.68810000      -1.14120000
C        2.06440000      -1.05810000      -0.55420000
O        2.08890000      -0.57410000       0.78380000
C        0.73860000      -0.46990000       1.22730000
C        0.70620000       0.32810000       2.51920000
H        1.19690000       1.90100000      -0.17520000
H       -0.30550000       1.94090000      -1.10940000
H       -0.35140000       2.16420000       0.64190000
H       -1.07780000      -0.15390000       0.05980000
H        0.11130000      -1.59100000      -1.39080000
H        0.75680000      -0.09290000      -2.05440000
H        2.21900000      -2.14740000      -0.56850000
H        2.89800000      -0.59490000      -1.09120000
H        0.34150000      -1.48250000       1.42780000
H        1.13850000       1.32220000       2.38090000
H       -0.32270000       0.43880000       2.87600000
H        1.28240000      -0.18700000       3.29270000
