16
Properties=species:S:1:pos:R:3 gdb_79285=T pbc="F F F"
O        0.06300000       1.40070000       0.11880000
C        0.03950000       0.00170000       0.03280000
C       -1.35870000      -0.57360000      -0.23800000
C       -1.48810000      -0.60750000      -1.72260000
N       -0.24860000      -0.03010000      -2.26790000
C        0.69680000      -0.56740000      -1.25630000
C        0.30410000      -2.05830000      -1.12930000
O        0.99970000      -3.03840000      -1.12890000
C       -1.18010000      -1.91260000      -0.98560000
H       -0.15900000       1.72060000      -0.76720000
H        0.50260000      -0.39250000       0.94080000
H       -2.19730000      -0.40180000       0.42250000
H       -2.41370000      -0.44150000      -2.25580000
H       -0.04080000      -0.41690000      -3.18620000
H        1.74190000      -0.33450000      -1.43770000
H       -1.86440000      -2.74380000      -0.90010000
