22
Properties=species:S:1:pos:R:3 gdb_93501=T pbc="F F F"
C       -0.03750000       1.58980000      -0.04900000
C        0.04310000       0.06090000      -0.03310000
C        0.67020000      -0.51030000      -1.31130000
C        0.55570000      -2.03730000      -1.32720000
C        0.95350000      -2.71520000      -0.02170000
O        1.24970000      -3.89540000       0.03100000
N        0.90240000      -1.94010000       1.10670000
C        0.77640000      -0.48550000       1.21220000
C        2.14540000       0.15730000       1.48960000
H        0.94340000       2.04800000      -0.21050000
H       -0.69350000       1.92580000      -0.85800000
H       -0.44120000       1.98220000       0.89080000
H       -0.98300000      -0.32860000       0.02580000
H        0.17610000      -0.08760000      -2.19310000
H        1.72300000      -0.20840000      -1.37710000
H       -0.48410000      -2.33150000      -1.52120000
H        1.15500000      -2.49280000      -2.11930000
H        1.20410000      -2.43700000       1.93420000
H        0.13640000      -0.28100000       2.08140000
H        2.82190000       0.05180000       0.63600000
H        2.04620000       1.22010000       1.72700000
H        2.61910000      -0.33070000       2.34740000
