17
Properties=species:S:1:pos:R:3 gdb_45147=T pbc="F F F"
O        0.32740000       0.12630000      -0.60130000
C        0.16220000       1.21470000      -0.13760000
C       -1.04020000       1.92440000       0.51760000
C       -0.18440000       3.21750000       0.62030000
C        0.62310000       3.34920000       1.94120000
C        1.79160000       2.61530000       1.26960000
C        3.23220000       2.76650000       1.48200000
O        2.53540000       1.57380000       1.86710000
C        1.03780000       2.47670000      -0.06620000
H       -1.87910000       1.99900000      -0.18260000
H       -1.41040000       1.49190000       1.45170000
H       -0.61520000       4.12540000       0.20380000
H        0.85990000       4.37840000       2.22360000
H        0.19490000       2.83810000       2.80800000
H        3.91780000       2.65570000       0.64280000
H        3.59390000       3.38260000       2.30480000
H        1.55430000       2.78370000      -0.97670000
