15
Properties=species:S:1:pos:R:3 gdb_97513=T pbc="F F F"
O       -0.63070000       1.28520000       1.26360000
C       -0.36950000       0.04070000       0.64060000
C       -1.55000000      -0.57000000       0.03480000
C       -2.54150000      -1.01990000      -0.48790000
C       -3.71700000      -1.59110000      -1.10890000
O       -3.72500000      -2.69240000      -1.61730000
C       -4.95770000      -0.74170000      -1.08840000
C       -5.35260000      -0.01280000       0.13510000
O       -4.79050000       0.67080000      -0.97410000
H       -1.05200000       1.85750000       0.61310000
H        0.41620000       0.11990000      -0.12820000
H        0.02490000      -0.61640000       1.42380000
H       -5.72750000      -1.08230000      -1.77790000
H       -6.41240000       0.16020000       0.31390000
H       -4.71940000      -0.06960000       1.01830000
