17
Properties=species:S:1:pos:R:3 gdb_52734=T pbc="F F F"
C       -0.11740000       1.51770000       0.11310000
C       -0.01240000       0.06730000       0.05480000
C        0.09620000      -1.13050000       0.00800000
C        0.14580000      -2.59330000      -0.04040000
C       -1.31020000      -3.12560000      -0.03730000
O       -1.76030000      -3.82800000       0.82220000
C        0.81820000      -3.11200000      -1.23340000
C        1.31460000      -3.57510000      -2.22740000
C        1.93790000      -4.12460000      -3.42220000
H        0.87340000       1.98360000       0.14910000
H       -0.63890000       1.91260000      -0.76530000
H       -0.66970000       1.84000000       1.00230000
H        0.61760000      -2.99000000       0.86720000
H       -1.89930000      -2.79000000      -0.91560000
H        1.90950000      -5.21950000      -3.41670000
H        1.42710000      -3.78190000      -4.32850000
H        2.98710000      -3.81870000      -3.49600000
