16
Properties=species:S:1:pos:R:3 gdb_85753=T pbc="F F F"
C        0.38400000       1.49740000      -0.21800000
C        0.10490000       0.01820000      -0.00710000
O        0.63510000      -0.70600000      -1.13190000
C        1.12880000      -1.97150000      -0.72150000
C        2.30570000      -2.31860000      -1.53080000
N        3.22580000      -2.63550000      -2.15190000
C        1.42530000      -1.83930000       0.76870000
O        2.19800000      -0.68310000       1.07050000
C        0.77340000      -0.60560000       1.20270000
H        1.46190000       1.67440000      -0.21950000
H       -0.02930000       1.82540000      -1.17480000
H       -0.07650000       2.08950000       0.57880000
H       -0.97970000      -0.16280000       0.06920000
H        0.37440000      -2.76340000      -0.86120000
H        1.58060000      -2.72150000       1.38200000
H        0.38470000      -0.44830000       2.20460000
