19
Properties=species:S:1:pos:R:3 gdb_55295=T pbc="F F F"
C        0.73310000       0.38810000      -0.60120000
C       -0.60790000       0.72320000       0.00510000
O       -0.88500000       1.81910000       0.44660000
C       -1.64600000      -0.38320000       0.11030000
N       -1.26990000      -1.75280000      -0.31060000
C       -1.83810000      -2.34400000       0.93550000
C       -1.88910000      -0.93680000       1.53160000
C       -1.36790000      -0.41650000       2.81180000
N       -2.82150000      -0.45680000       2.52760000
H        1.38460000       1.26200000      -0.56860000
H        1.18240000      -0.45520000      -0.06800000
H        0.60350000       0.05080000      -1.63580000
H       -2.58370000      -0.00410000      -0.32330000
H       -1.71620000      -2.06750000      -1.16450000
H       -2.84000000      -2.77780000       0.82230000
H       -1.18270000      -3.07530000       1.41990000
H       -1.03590000      -1.10960000       3.58020000
H       -0.86890000       0.54780000       2.80540000
H       -3.14300000       0.47570000       2.27460000
