22
Properties=species:S:1:pos:R:3 gdb_13821=T pbc="F F F"
C       -0.15140000       1.09870000       0.21120000
O        0.63610000      -0.07410000       0.19050000
C        0.87120000      -0.56020000      -1.09560000
C        1.46720000      -1.92750000      -1.17890000
C        0.04350000      -1.70170000      -1.65630000
C       -1.12370000      -2.30830000      -0.89430000
C       -2.45750000      -1.68590000      -1.33570000
C       -1.16380000      -3.83490000      -1.06200000
H        0.32440000       1.91160000      -0.35870000
H       -1.15630000       0.93200000      -0.20000000
H       -0.24080000       1.40700000       1.25570000
H        1.22210000       0.20160000      -1.79400000
H        2.25480000      -2.11990000      -1.89890000
H        1.58580000      -2.44240000      -0.23060000
H       -0.09170000      -1.68560000      -2.73690000
H       -0.97370000      -2.08210000       0.16860000
H       -2.65650000      -1.90020000      -2.39290000
H       -3.29270000      -2.09090000      -0.75470000
H       -2.45870000      -0.59860000      -1.21390000
H       -0.23310000      -4.29860000      -0.72180000
H       -1.98970000      -4.27220000      -0.49060000
H       -1.30710000      -4.10900000      -2.11420000
