17
Properties=species:S:1:pos:R:3 gdb_100168=T pbc="F F F"
C        0.06580000       1.54370000      -0.06010000
C       -0.14160000       0.05230000       0.04340000
O       -0.37270000      -0.52270000       1.07930000
C       -0.06500000      -0.75020000      -1.27540000
O        0.69180000      -0.02710000      -2.22450000
C        0.54010000      -2.13240000      -1.00750000
O        0.80420000      -2.67650000      -2.29800000
C       -1.50890000      -0.91320000      -1.80660000
O       -2.31050000      -1.69160000      -1.37080000
H        1.06250000       1.75300000      -0.45900000
H       -0.64420000       1.97650000      -0.77400000
H       -0.06070000       1.99720000       0.92310000
H        1.03590000      -0.69070000      -2.83920000
H        1.46100000      -2.02800000      -0.41990000
H       -0.18360000      -2.72830000      -0.44350000
H        1.29600000      -3.49590000      -2.19650000
H       -1.72860000      -0.21850000      -2.64750000
