24
Properties=species:S:1:pos:R:3 gdb_60052=T pbc="F F F"
C        0.78340000       1.81300000      -0.33800000
C        0.36420000       0.36240000      -0.54640000
O       -0.52450000       0.33190000      -1.64960000
C        1.57970000      -0.55440000      -0.78830000
C        1.24520000      -2.05020000      -0.86880000
C        1.70570000      -2.86190000       0.32680000
N       -0.09010000      -2.39780000      -1.42980000
C        1.13010000      -2.75630000      -2.17970000
C        1.31770000      -2.08430000      -3.51830000
H        1.42410000       1.91830000       0.54310000
H        1.32920000       2.18060000      -1.21340000
H       -0.10170000       2.44080000      -0.20420000
H       -0.15250000       0.01310000       0.36610000
H       -0.75570000      -0.60750000      -1.76000000
H        2.07310000      -0.21810000      -1.70660000
H        2.30180000      -0.40890000       0.02360000
H        1.25340000      -2.48570000       1.25220000
H        1.43640000      -3.91870000       0.22240000
H        2.79320000      -2.80270000       0.44500000
H       -0.48110000      -3.20220000      -0.94750000
H        1.40600000      -3.81030000      -2.16010000
H        0.93730000      -1.06080000      -3.49310000
H        2.37590000      -2.06260000      -3.80130000
H        0.77230000      -2.62780000      -4.29710000
