18
Properties=species:S:1:pos:R:3 gdb_30242=T pbc="F F F"
C       -0.28960000       1.50000000       0.09000000
C       -0.04520000      -0.00400000       0.03150000
C        0.67580000      -0.55080000      -1.26640000
N        1.70270000      -1.10300000      -0.36810000
C        3.01840000      -1.46280000      -0.17840000
C        3.27090000      -1.18430000       1.15630000
O        4.44920000      -1.49830000       1.77320000
C        2.12050000      -0.57580000       1.76150000
C        1.17680000      -0.55200000       0.75750000
H        0.62150000       2.05720000      -0.14990000
H       -1.07420000       1.79930000      -0.61320000
H       -0.60960000       1.79860000       1.09340000
H       -0.97370000      -0.54330000       0.24980000
H        0.14560000      -1.30210000      -1.85960000
H        1.04760000       0.24360000      -1.92180000
H        3.62700000      -1.95610000      -0.91650000
H        4.39400000      -1.21720000       2.69060000
H        2.03530000      -0.23550000       2.78250000
