17
Properties=species:S:1:pos:R:3 gdb_44629=T pbc="F F F"
N        0.31460000       1.01520000       0.38760000
C        0.09870000      -0.15270000      -0.01230000
O        0.94210000      -1.05430000      -0.65270000
C       -0.12910000      -2.03880000      -0.77090000
C       -0.23020000      -3.01830000       0.41900000
C        0.80310000      -2.93250000       1.56480000
C       -0.17100000      -1.93010000       2.25260000
N       -1.17210000      -2.08070000       1.13810000
C       -1.08800000      -1.09500000      -0.00170000
H        1.27550000       1.30600000       0.19580000
H       -0.23760000      -2.38930000      -1.79640000
H       -0.62800000      -4.00410000       0.15960000
H        0.94970000      -3.87120000       2.10120000
H        1.77400000      -2.52600000       1.27820000
H       -0.59150000      -2.27400000       3.20130000
H        0.20440000      -0.91270000       2.38580000
H       -2.04940000      -0.71040000      -0.33950000
