20
Properties=species:S:1:pos:R:3 gdb_86071=T pbc="F F F"
C       -0.76280000       1.27430000      -0.06950000
C        0.18700000       0.08110000       0.00660000
C        1.21060000       0.00600000      -1.15210000
C        2.39390000      -0.70160000      -0.53560000
N        3.39630000      -1.15470000      -1.34060000
C        2.31200000      -0.69810000       0.82760000
C        1.06300000       0.02530000       1.28360000
C        3.26780000      -1.27130000       1.73900000
O        3.19070000      -1.23080000       2.95480000
H       -0.20770000       2.21930000      -0.04780000
H       -1.35870000       1.25720000      -0.98860000
H       -1.45720000       1.27750000       0.77690000
H       -0.40510000      -0.84210000      -0.02490000
H        0.82510000      -0.50900000      -2.04100000
H        1.51890000       1.00980000      -1.48010000
H        3.17630000      -1.35070000      -2.30320000
H        4.12170000      -1.73050000      -0.94460000
H        1.30010000       1.03800000       1.64140000
H        0.56670000      -0.48430000       2.11460000
H        4.13060000      -1.79810000       1.25910000
