15
Properties=species:S:1:pos:R:3 gdb_35447=T pbc="F F F"
C        0.06060000      -1.22050000      -0.13030000
C        0.01840000      -0.02330000      -0.03230000
C       -0.03710000       1.41710000       0.09230000
C       -0.23010000       2.05610000       1.52540000
C        1.09120000       2.80120000       1.32540000
O        2.10590000       1.82150000       1.11410000
C        1.30690000       2.20120000      -0.01350000
C        1.92980000       2.67900000      -1.19770000
C        2.41490000       3.06510000      -2.22790000
H        0.10780000      -2.27770000      -0.21770000
H       -0.76490000       1.84010000      -0.60630000
H       -1.10610000       2.70580000       1.56980000
H       -0.23760000       1.35510000       2.36100000
H        1.40180000       3.76700000       1.70600000
H        2.85630000       3.40700000      -3.13150000
