18
Properties=species:S:1:pos:R:3 gdb_102904=T pbc="F F F"
O        0.02880000       1.55790000      -0.13400000
C        0.03430000       0.14940000       0.01670000
C       -1.43320000      -0.30800000       0.09230000
C       -2.18740000       0.03300000      -1.21140000
C       -3.69420000      -0.26550000      -1.10850000
C       -4.40760000       0.04450000      -2.34490000
N       -4.95770000       0.29300000      -3.33030000
C       -1.50350000      -1.73240000       0.40800000
C       -1.55230000      -2.91030000       0.64440000
H        0.93390000       1.85550000      -0.26220000
H        0.52650000      -0.35170000      -0.83060000
H        0.55270000      -0.15830000       0.93580000
H       -1.89340000       0.25930000       0.91400000
H       -2.02870000       1.09110000      -1.42980000
H       -1.75890000      -0.54340000      -2.03800000
H       -3.85240000      -1.32230000      -0.86660000
H       -4.14230000       0.31660000      -0.29430000
H       -1.59790000      -3.94830000       0.86530000
