20
Properties=species:S:1:pos:R:3 gdb_82071=T pbc="F F F"
C       -0.10670000       1.68830000      -0.45450000
C        0.02240000       0.19300000      -0.19440000
C        0.74060000      -0.68970000      -1.22700000
C        2.21460000      -0.40040000      -1.27750000
C        1.67650000      -1.23730000      -0.15090000
C        1.00000000      -0.36420000       0.92500000
C        1.88830000       0.60510000       1.68680000
N        1.91420000       0.42340000       3.04250000
O        2.53280000       1.49250000       1.15250000
H        0.86470000       2.15870000      -0.61220000
H       -0.72980000       1.85840000      -1.34000000
H       -0.58510000       2.19480000       0.39130000
H       -0.97000000      -0.22100000       0.01110000
H        0.24070000      -1.23000000      -2.02220000
H        2.75830000      -0.96300000      -2.03020000
H        2.60730000       0.58900000      -1.07650000
H        2.00100000      -2.25700000       0.01830000
H        0.43520000      -0.98390000       1.62720000
H        1.47340000      -0.36160000       3.48750000
H        2.55130000       0.98800000       3.58130000
