15
Properties=species:S:1:pos:R:3 gdb_22757=T pbc="F F F"
O       -0.02020000       1.33260000       0.17390000
N        0.07930000      -0.06270000       0.18460000
C       -1.05840000      -0.60710000       0.08660000
C       -2.47520000      -0.14040000      -0.17790000
C       -2.79160000      -1.58750000      -0.70050000
C       -2.77610000      -1.69580000      -2.14700000
N       -2.70940000      -1.78490000      -3.29820000
C       -1.40940000      -2.07840000      -0.05930000
O       -0.58540000      -2.95300000      -0.74490000
H        0.90270000       1.60720000       0.21880000
H       -3.03500000       0.10690000       0.72780000
H       -2.58120000       0.67430000      -0.89520000
H       -3.68600000      -2.06410000      -0.29640000
H       -1.62190000      -2.54080000       0.91060000
H       -0.28640000      -2.52700000      -1.55770000
