19
Properties=species:S:1:pos:R:3 gdb_43715=T pbc="F F F"
O       -0.04050000       0.22390000      -0.67990000
C       -0.04400000       1.28300000      -0.12510000
C       -1.15960000       2.19480000       0.42120000
C       -0.04710000       3.17070000       0.86260000
C        1.06740000       2.25610000       0.31460000
C        0.00270000       4.66360000       0.77060000
C       -1.34920000       5.27440000       1.15960000
C       -1.26300000       4.54970000       2.54440000
C        0.08750000       3.95110000       2.13240000
H       -1.84700000       2.55800000      -0.35020000
H       -1.74920000       1.73560000       1.22180000
H        1.75550000       1.83260000       1.05410000
H        1.65760000       2.65480000      -0.51760000
H        0.78470000       5.16340000       0.20960000
H       -1.31290000       6.36090000       1.26200000
H       -2.19640000       5.01650000       0.51540000
H       -1.18160000       5.25640000       3.37290000
H       -2.05550000       3.83160000       2.78000000
H        0.94490000       3.81720000       2.78270000
