14
Properties=species:S:1:pos:R:3 gdb_131620=T pbc="F F F"
O       -0.16810000       1.45000000       0.16500000
C        0.01430000       0.05490000      -0.01500000
C       -1.34190000      -0.57370000       0.00750000
C       -1.76140000      -1.90100000       0.03030000
C       -3.18100000      -1.82510000       0.02320000
N       -3.60190000      -0.57150000       0.00110000
N       -2.46660000       0.16150000      -0.01220000
C       -0.93410000      -3.04620000       0.05550000
N       -0.24340000      -3.97660000       0.07600000
H        0.67480000       1.89070000       0.02780000
H        0.50670000      -0.16930000      -0.97360000
H        0.63620000      -0.38600000       0.77800000
H       -3.88500000      -2.64300000       0.03570000
H       -2.50250000       1.16830000      -0.01080000
