19
Properties=species:S:1:pos:R:3 gdb_85543=T pbc="F F F"
C        0.13630000       1.50180000       0.01200000
N        0.04960000       0.05000000       0.03160000
C        0.38640000      -0.52890000      -1.26260000
C        0.48260000      -2.05110000      -1.30470000
O        0.32990000      -2.66680000      -2.34260000
N        0.81700000      -2.65750000      -0.13000000
C        1.07410000      -1.97910000       1.10450000
C        2.18170000      -0.93850000       1.19940000
C        0.70680000      -0.53600000       1.16300000
H        1.16260000       1.87290000      -0.16430000
H       -0.50860000       1.89590000      -0.77970000
H       -0.21270000       1.90560000       0.96750000
H       -0.37150000      -0.24130000      -1.99610000
H        1.35330000      -0.15180000      -1.65340000
H        1.01040000      -3.64600000      -0.19940000
H        0.86890000      -2.59720000       1.97180000
H        2.72460000      -0.83650000       2.13300000
H        2.77930000      -0.78950000       0.30680000
H        0.28840000      -0.17970000       2.10020000
