19
Properties=species:S:1:pos:R:3 gdb_44440=T pbc="F F F"
O        0.00710000       0.01070000      -0.41680000
C       -0.00300000       1.16440000      -0.06130000
C       -1.29200000       1.90860000       0.30320000
C       -1.03270000       3.34670000       0.71690000
C        0.07340000       4.13120000       0.04300000
C        1.03010000       3.29790000      -0.79670000
C        1.23980000       2.02750000       0.07140000
C        1.27580000       2.58770000       1.51920000
C        0.22640000       3.68880000       1.48550000
H       -1.96470000       1.85540000      -0.56170000
H       -1.78880000       1.34490000       1.10250000
H       -1.91800000       3.91480000       0.98490000
H       -0.09750000       5.16930000      -0.21660000
H        0.64640000       3.05900000      -1.79500000
H        1.98290000       3.82300000      -0.92920000
H        2.11880000       1.44250000      -0.20130000
H        1.07740000       1.81290000       2.26840000
H        2.26550000       3.00610000       1.73500000
H        0.16980000       4.39610000       2.30460000
