15
Properties=species:S:1:pos:R:3 gdb_3987=T pbc="F F F"
C        0.99560000       0.71110000       0.00430000
C       -0.23520000      -0.14770000       0.00890000
C       -0.69600000      -0.75880000       1.30630000
O        0.32760000      -1.59270000       1.88190000
C        0.32170000      -2.89650000       1.53110000
O        1.15310000      -3.66470000       1.90860000
N       -0.96940000      -0.42930000      -0.99960000
O       -0.52760000       0.18650000      -2.17090000
H        1.70220000       0.35750000       0.75890000
H        1.46880000       0.70640000      -0.97780000
H        0.73670000       1.74940000       0.24640000
H       -0.88420000       0.01300000       2.05860000
H       -1.61710000      -1.32460000       1.13880000
H       -0.53130000      -3.16260000       0.87840000
H       -1.14700000      -0.15050000      -2.82730000
