23
Properties=species:S:1:pos:R:3 gdb_105531=T pbc="F F F"
C        0.25520000       1.44390000       0.09290000
C       -0.05150000      -0.05800000       0.09260000
C       -1.53210000      -0.47250000       0.00220000
C       -2.48740000       0.29570000       0.95490000
O       -3.09590000       1.00280000      -0.14160000
C       -2.35160000       0.23810000      -1.11040000
C       -1.62240000      -1.98730000      -0.00010000
C       -1.77260000      -2.78120000       1.27420000
C       -2.89710000      -2.74500000       0.26790000
H        1.33690000       1.60340000       0.13790000
H       -0.11170000       1.94080000      -0.81000000
H       -0.18550000       1.95610000       0.95320000
H        0.47790000      -0.52710000      -0.74810000
H        0.36930000      -0.51220000       0.99920000
H       -3.21610000      -0.32060000       1.49680000
H       -2.01400000       0.97580000       1.67250000
H       -1.79590000       0.88110000      -1.80330000
H       -3.00040000      -0.43220000      -1.68850000
H       -0.97460000      -2.44020000      -0.74850000
H       -1.20440000      -3.69750000       1.38830000
H       -1.91190000      -2.23140000       2.19990000
H       -3.79260000      -2.18890000       0.52320000
H       -3.08910000      -3.63560000      -0.32030000
