22
Properties=species:S:1:pos:R:3 gdb_57049=T pbc="F F F"
C       -0.02500000       1.57710000       0.03630000
C        0.08500000       0.04340000      -0.07760000
C        0.84780000      -0.32900000      -1.27510000
N        1.46220000      -0.62570000      -2.20860000
C        0.72080000      -0.58090000       1.17520000
C       -0.04130000      -0.46750000       2.52290000
C        0.45680000      -1.89510000       2.87390000
C        0.77440000      -2.13440000       1.36660000
C       -0.29620000      -2.94090000       0.63470000
H        0.96420000       2.02970000       0.14960000
H       -0.49720000       2.00580000      -0.85110000
H       -0.62700000       1.83960000       0.91030000
H       -0.92450000      -0.36730000      -0.20470000
H        1.73080000      -0.17130000       1.28460000
H        0.23620000       0.34920000       3.19280000
H       -1.12600000      -0.43770000       2.37610000
H        1.35950000      -1.87400000       3.49000000
H       -0.26340000      -2.57480000       3.33680000
H        1.75480000      -2.57220000       1.16110000
H       -1.30560000      -2.56540000       0.83870000
H       -0.14130000      -2.92910000      -0.44890000
H       -0.26820000      -3.98540000       0.96240000
