17
Properties=species:S:1:pos:R:3 gdb_108735=T pbc="F F F"
C        0.15660000       1.51090000      -0.13850000
C       -0.06400000       0.00060000       0.07280000
C        0.63310000      -0.51640000       1.28770000
C        0.15050000      -0.97010000       2.45340000
C        1.26230000      -1.36160000       3.34600000
N        1.12140000      -1.82950000       4.52130000
N        2.42650000      -1.10440000       2.61620000
C        2.13620000      -0.59310000       1.35440000
O        2.94200000      -0.28740000       0.50590000
H        1.22190000       1.73020000      -0.24210000
H       -0.35390000       1.84560000      -1.04600000
H       -0.23540000       2.08610000       0.70580000
H       -1.13380000      -0.21950000       0.14610000
H        0.32030000      -0.53530000      -0.80350000
H       -0.88060000      -1.06790000       2.76280000
H        2.02270000      -2.03210000       4.95850000
H        3.36660000      -1.26790000       2.93730000
