19
Properties=species:S:1:pos:R:3 gdb_119934=T pbc="F F F"
C       -0.29190000       1.44810000      -0.00590000
C       -0.31630000      -0.03300000      -0.33360000
O       -1.27240000      -0.66250000       0.52380000
C       -1.41620000      -2.01490000       0.31370000
C       -2.73650000      -2.60090000       0.71680000
N       -3.80880000      -1.82010000       1.26270000
C       -2.40980000      -2.49370000      -0.77420000
C       -3.07860000      -1.50690000      -1.56660000
N       -3.61050000      -0.69760000      -2.20140000
H        0.44220000       1.96000000      -0.63470000
H       -1.27340000       1.89440000      -0.18650000
H       -0.02390000       1.60830000       1.04220000
H       -0.59610000      -0.19820000      -1.38230000
H        0.67190000      -0.49030000      -0.17110000
H       -0.50660000      -2.60970000       0.41450000
H       -2.71510000      -3.61600000       1.10210000
H       -3.68020000      -1.73100000       2.26690000
H       -3.77700000      -0.87660000       0.88730000
H       -2.17750000      -3.41330000      -1.30050000
