20
Properties=species:S:1:pos:R:3 gdb_71805=T pbc="F F F"
C       -0.11420000       1.54720000       0.07230000
C        0.02760000       0.05610000      -0.04740000
C       -0.33870000      -0.72660000      -1.30420000
C       -0.68510000      -1.90220000      -0.36340000
C        0.47530000      -2.86120000      -0.09420000
C        1.86570000      -2.51240000      -0.58130000
C        1.42040000      -2.07430000       0.78750000
C        0.71400000      -0.75990000       1.00610000
N       -0.75400000      -0.91450000       0.82640000
H        0.69060000       2.05970000      -0.46830000
H       -1.06920000       1.88210000      -0.34780000
H       -0.07480000       1.86640000       1.11780000
H       -1.25160000      -0.29990000      -1.73040000
H        0.38530000      -0.86460000      -2.11090000
H       -1.63260000      -2.40910000      -0.53910000
H        0.24570000      -3.90000000       0.11350000
H        2.58080000      -3.32860000      -0.62150000
H        2.00690000      -1.77290000      -1.35870000
H        1.88660000      -2.52030000       1.65920000
H        0.98620000      -0.20350000       1.89850000
