17
Properties=species:S:1:pos:R:3 gdb_29445=T pbc="F F F"
C       -0.02050000       1.53270000       0.00200000
C       -0.00730000       0.03740000       0.02070000
C       -0.02540000      -0.79800000      -1.04210000
C       -0.00280000      -2.26510000      -0.62300000
C        0.03080000      -2.09450000       0.85690000
C        0.02870000      -0.78890000       1.23870000
C        0.06290000      -0.80060000       2.67170000
C        0.08220000      -2.12040000       3.01830000
O        0.06300000      -2.93450000       1.90990000
H        0.86810000       1.94260000       0.49760000
H       -0.04870000       1.91820000      -1.02050000
H       -0.89070000       1.92760000       0.54040000
H       -0.05270000      -0.49400000      -2.08070000
H       -0.88760000      -2.80800000      -0.98040000
H        0.87330000      -2.79280000      -1.02220000
H        0.07230000       0.02930000       3.36120000
H        0.10890000      -2.63550000       3.96400000
