16
Properties=species:S:1:pos:R:3 gdb_5714=T pbc="F F F"
C        0.01160000       1.43910000       0.10120000
C        1.47020000       1.93400000      -0.13560000
C        2.23230000       0.64430000      -0.01690000
C        3.49320000       0.11660000       0.10180000
N        3.35950000      -1.25200000       0.06740000
C        2.02380000      -1.61420000      -0.07260000
C        1.32240000      -0.43660000      -0.12950000
N        0.00410000       0.01820000      -0.33410000
H       -0.23000000       1.52870000       1.17150000
H       -0.72700000       2.01650000      -0.46230000
H        1.56900000       2.37090000      -1.13810000
H        1.74990000       2.70850000       0.58450000
H        4.46340000       0.57420000       0.21110000
H        4.11320000      -1.90290000       0.19330000
H        1.72840000      -2.64910000      -0.11030000
H       -0.71410000      -0.52910000       0.12280000
