19
Properties=species:S:1:pos:R:3 gdb_114374=T pbc="F F F"
C        0.13040000       1.37650000       0.07290000
O       -0.28400000       0.05820000      -0.22010000
C        0.52580000      -0.58060000      -1.17070000
C        1.91490000      -1.17910000      -0.73510000
C        1.42220000      -2.54620000      -1.22530000
C        0.18020000      -3.00710000      -0.48850000
C       -0.10600000      -2.77690000       0.95420000
O       -0.62700000      -3.61460000       1.65320000
C        0.06160000      -1.96730000      -1.59330000
H        1.14040000       1.40440000       0.50790000
H        0.12460000       2.00930000      -0.82800000
H       -0.57670000       1.78500000       0.79800000
H        0.65470000       0.06740000      -2.05020000
H        2.74160000      -0.78640000      -1.33060000
H        2.17600000      -1.09770000       0.32270000
H        2.01760000      -3.26360000      -1.77590000
H       -0.16300000      -3.98770000      -0.80760000
H        0.17590000      -1.78780000       1.35980000
H       -0.57150000      -2.17360000      -2.44750000
