20
Properties=species:S:1:pos:R:3 gdb_85933=T pbc="F F F"
C       -0.03930000       1.40140000       0.12350000
N       -0.03680000      -0.04190000       0.11400000
C       -1.20510000      -0.83270000      -0.19090000
C       -0.63230000      -2.27230000      -0.12690000
C       -0.87720000      -2.92000000       1.23680000
C       -1.09860000      -3.15540000      -1.27680000
O        0.79750000      -2.07000000      -0.27070000
C        1.12190000      -0.76010000      -0.06920000
O        2.25150000      -0.34810000      -0.05560000
H        0.99000000       1.73340000       0.26670000
H       -0.41820000       1.81260000      -0.82300000
H       -0.66130000       1.78550000       0.93960000
H       -2.00540000      -0.68020000       0.54220000
H       -1.60960000      -0.59420000      -1.18720000
H       -1.94200000      -3.13210000       1.37700000
H       -0.32160000      -3.85810000       1.31380000
H       -0.54700000      -2.25680000       2.04170000
H       -0.84090000      -2.70270000      -2.23790000
H       -0.62560000      -4.13960000      -1.22120000
H       -2.18410000      -3.29250000      -1.23590000
