21
Properties=species:S:1:pos:R:3 gdb_85554=T pbc="F F F"
C       -0.09370000       1.54890000      -0.05590000
C        0.00960000       0.01880000       0.06350000
C        0.62640000      -0.56130000      -1.22880000
C        0.93060000      -2.04050000      -1.11140000
O        0.52310000      -2.86580000      -1.89460000
C        1.80440000      -2.40320000       0.07990000
C        1.56660000      -1.51790000       1.27460000
C        0.76770000      -0.44660000       1.30030000
C        0.53810000       0.31210000       2.58280000
H        0.90050000       2.00840000      -0.09360000
H       -0.62240000       1.82010000      -0.97510000
H       -0.63930000       1.98990000       0.78220000
H       -1.01900000      -0.36690000       0.14810000
H       -0.02560000      -0.39820000      -2.09040000
H        1.57720000      -0.04130000      -1.41620000
H        1.63620000      -3.45880000       0.32110000
H        2.85550000      -2.33780000      -0.24450000
H        2.07030000      -1.81920000       2.19100000
H        1.04830000      -0.16940000       3.42080000
H        0.89530000       1.34630000       2.51940000
H       -0.53130000       0.36610000       2.82540000
