23
Properties=species:S:1:pos:R:3 gdb_120200=T pbc="F F F"
C        0.95050000       1.45470000      -0.04120000
O        1.03840000       0.05870000      -0.17930000
C        0.06660000      -0.47000000      -1.06290000
C        0.22970000      -1.97790000      -1.06800000
C       -0.49720000      -2.88080000      -2.11480000
C        0.53790000      -2.40070000      -3.17510000
C        1.36080000      -2.68430000      -1.88470000
C        0.53350000      -4.01050000      -1.76780000
C        0.46260000      -4.82800000      -0.48640000
H        1.10510000       1.97410000      -1.00100000
H       -0.02800000       1.76680000       0.35910000
H        1.73180000       1.76640000       0.65670000
H       -0.94760000      -0.21120000      -0.70830000
H        0.17910000      -0.01720000      -2.05910000
H        0.14440000      -2.31310000      -0.03240000
H       -1.57530000      -2.99480000      -2.24970000
H        0.71360000      -3.07650000      -4.01680000
H        0.47100000      -1.36850000      -3.51850000
H        2.43700000      -2.56570000      -1.74870000
H        0.70720000      -4.68580000      -2.61400000
H        0.29050000      -4.23170000       0.41240000
H       -0.34430000      -5.56650000      -0.55250000
H        1.39730000      -5.38080000      -0.33970000
