17
Properties=species:S:1:pos:R:3 gdb_66650=T pbc="F F F"
O       -0.10210000       1.41840000       0.03550000
C        0.02920000       0.05620000       0.01820000
C       -1.03000000      -0.99360000       0.11630000
C       -0.03660000      -0.97670000      -1.08350000
C        1.17230000      -1.74470000      -0.53130000
O        0.97910000      -3.12340000      -0.28530000
C        0.03440000      -3.23430000       0.79590000
C       -0.28590000      -1.79350000       1.19870000
C        0.96720000      -0.95440000       0.79230000
H        0.60640000       1.80310000      -0.49280000
H       -2.09450000      -0.89810000      -0.05340000
H       -0.39530000      -0.88200000      -2.10010000
H        2.11110000      -1.60730000      -1.06970000
H       -0.85660000      -3.77730000       0.45560000
H        0.49590000      -3.80850000       1.61060000
H       -0.65990000      -1.65920000       2.21390000
H        1.78070000      -0.73680000       1.47980000
