19
Properties=species:S:1:pos:R:3 gdb_85242=T pbc="F F F"
C        0.08270000       1.55780000      -0.08190000
C        0.00640000       0.04870000       0.08280000
O        0.56350000      -0.58950000      -1.09040000
C        1.29460000      -1.69650000      -0.76260000
O        1.65360000      -2.49310000      -1.58200000
C        1.54350000      -1.72170000       0.71870000
C        1.74420000      -3.06230000       1.37590000
C        2.26400000      -0.46880000       1.19320000
C        0.76750000      -0.54450000       1.26070000
H        1.12070000       1.89740000      -0.13090000
H       -0.42730000       1.86740000      -0.99780000
H       -0.40310000       2.04920000       0.76690000
H       -1.04640000      -0.25820000       0.14200000
H        2.58150000      -3.58820000       0.90810000
H        1.95940000      -2.94770000       2.44210000
H        0.85660000      -3.69440000       1.27190000
H        2.80710000      -0.56590000       2.12710000
H        2.73810000       0.17760000       0.46200000
H        0.27210000      -0.58570000       2.22340000
