21
Properties=species:S:1:pos:R:3 gdb_61684=T pbc="F F F"
O        0.03500000       1.51040000      -0.01460000
C       -0.00670000       0.10930000       0.01590000
C        0.65200000      -0.51560000      -1.22890000
C       -0.03860000      -0.12690000      -2.53060000
C        0.11280000       1.31540000      -3.09260000
C        0.19730000       0.70910000      -4.51850000
C        0.54830000      -0.65750000      -3.86970000
C        0.65300000      -0.40560000       1.27770000
O        1.13870000       0.34010000       2.09420000
H        0.48120000       1.77600000       0.80530000
H       -1.05670000      -0.24040000       0.05310000
H        1.70510000      -0.20680000      -1.25910000
H        0.63790000      -1.60970000      -1.12100000
H       -1.10250000      -0.38900000      -2.46720000
H       -0.68130000       2.03160000      -2.87550000
H        1.06410000       1.75640000      -2.78180000
H       -0.78020000       0.68340000      -5.00910000
H        0.92100000       1.13990000      -5.21430000
H        1.63210000      -0.79860000      -3.79600000
H        0.10990000      -1.56350000      -4.29650000
H        0.67040000      -1.50700000       1.41030000
