18
Properties=species:S:1:pos:R:3 gdb_122761=T pbc="F F F"
C       -0.12170000       1.56040000       0.01220000
C       -0.05430000       0.03100000       0.00260000
C       -1.44280000      -0.62010000       0.01250000
C       -1.35700000      -2.13530000       0.00270000
O       -2.71430000      -2.65320000       0.01300000
C       -2.82640000      -3.97740000       0.00710000
O       -1.93480000      -4.78170000      -0.00560000
C       -4.24570000      -4.36100000       0.01880000
N       -5.34320000      -4.71960000       0.02800000
H        0.87980000       2.00010000       0.00490000
H       -0.65930000       1.93800000      -0.86420000
H       -0.64180000       1.92770000       0.90340000
H        0.50070000      -0.30680000      -0.88220000
H        0.51800000      -0.31710000       0.87230000
H       -2.00190000      -0.29930000       0.89950000
H       -2.01920000      -0.28900000      -0.85950000
H       -0.84960000      -2.51690000      -0.88880000
H       -0.83220000      -2.52730000       0.87960000
