20
Properties=species:S:1:pos:R:3 gdb_39386=T pbc="F F F"
C       -0.00290000       1.54230000      -0.11470000
C        1.52950000       1.32770000       0.02230000
C        1.20280000       0.05820000       0.88710000
C       -0.04690000       0.01980000      -0.00030000
N       -1.15510000      -0.83810000      -0.36280000
C        0.06820000      -0.81800000      -1.21380000
C        0.18500000      -0.09540000      -2.53030000
O        1.17070000       0.95540000      -2.46580000
C        2.10940000       0.97930000      -1.39110000
H       -0.42850000       2.01750000       0.77430000
H       -0.37260000       2.02400000      -1.01760000
H        2.11970000       2.10770000       0.50860000
H        1.88990000      -0.79230000       0.84930000
H        1.00640000       0.33540000       1.92800000
H       -1.17940000      -1.70250000       0.17390000
H        0.71620000      -1.68660000      -1.11070000
H        0.46380000      -0.78350000      -3.33980000
H       -0.76460000       0.37880000      -2.79920000
H        2.80770000       1.76670000      -1.68840000
H        2.68210000       0.04050000      -1.34180000
