22
Properties=species:S:1:pos:R:3 gdb_120048=T pbc="F F F"
C       -0.07660000       1.55490000      -0.02730000
C       -0.02200000       0.02880000       0.07510000
C        0.86460000      -0.46630000       1.22610000
C        0.87540000      -1.98300000       1.33630000
C        1.61150000      -2.74200000       2.46250000
C        0.98180000      -2.18030000       3.76540000
C       -0.32720000      -2.77810000       3.25260000
C        0.39010000      -3.74040000       2.38490000
N       -0.40850000      -2.65990000       1.74800000
H        0.92120000       1.97910000      -0.18840000
H       -0.71260000       1.87650000      -0.85810000
H       -0.47880000       1.99970000       0.88990000
H       -1.03230000      -0.37380000       0.21160000
H        0.34710000      -0.38980000      -0.87050000
H        1.89690000      -0.11810000       1.07760000
H        0.51780000      -0.01850000       2.16440000
H        1.14030000      -2.41880000       0.36520000
H        2.67380000      -2.97500000       2.41000000
H        1.33040000      -2.73630000       4.63990000
H        1.05310000      -1.10670000       3.96310000
H       -1.27360000      -2.88930000       3.76500000
H        0.27350000      -4.79560000       2.17660000
