19
Properties=species:S:1:pos:R:3 gdb_55114=T pbc="F F F"
C        0.03440000       1.10350000       0.81630000
C        0.05930000      -0.01290000      -0.21360000
O        1.04840000      -0.26160000      -0.86970000
C       -1.20500000      -0.83490000      -0.31820000
C       -1.36140000      -1.86790000      -1.47650000
C       -1.49630000      -2.99720000      -0.44630000
C       -0.24870000      -3.05310000       0.41200000
C       -1.29150000      -2.01180000       0.69480000
O       -1.96140000      -1.90550000       1.89950000
H        1.04310000       1.47840000       0.99460000
H       -0.59460000       1.92320000       0.44820000
H       -0.41940000       0.75860000       1.75190000
H       -2.09200000      -0.20540000      -0.20460000
H       -2.26660000      -1.69630000      -2.06180000
H       -0.50000000      -1.93550000      -2.14430000
H       -2.17790000      -3.83600000      -0.50630000
H       -0.24090000      -3.86680000       1.13120000
H        0.72250000      -2.78960000       0.00170000
H       -1.31630000      -1.92910000       2.61370000
