19
Properties=species:S:1:pos:R:3 gdb_75986=T pbc="F F F"
C       -1.13310000       1.06940000      -0.45200000
C       -0.12950000      -0.06350000      -0.31710000
C        0.82800000      -0.47930000      -1.51020000
C        1.00700000       0.53850000      -2.52580000
C        1.15700000       1.38800000      -3.36430000
C        2.02500000      -0.60300000      -0.47810000
C        3.41240000      -0.06880000      -0.79170000
C        1.14130000       0.16780000       0.51350000
O        1.37870000       0.82590000       1.48520000
H       -0.66520000       1.96020000      -0.87810000
H       -1.97090000       0.78450000      -1.09540000
H       -1.52960000       1.33040000       0.53350000
H       -0.62150000      -0.97180000       0.05320000
H        0.55550000      -1.42740000      -1.98000000
H        1.28700000       2.13050000      -4.11230000
H        2.08010000      -1.64830000      -0.14870000
H        3.36230000       0.95170000      -1.17910000
H        4.01860000      -0.05890000       0.11890000
H        3.91960000      -0.69050000      -1.53560000
