14
Properties=species:S:1:pos:R:3 gdb_19127=T pbc="F F F"
C        0.84680000      -1.22580000      -0.30800000
C        0.46630000      -0.09450000      -0.16660000
C       -0.01880000       1.25990000      -0.05430000
C       -0.19380000       1.89220000       1.26860000
O        0.91990000       2.22860000       0.44510000
C       -0.84850000       1.72490000      -1.22250000
C       -2.30720000       1.56350000      -1.23070000
O       -1.70130000       2.83920000      -1.00010000
H        1.19220000      -2.22420000      -0.41910000
H       -0.94860000       2.66830000       1.36750000
H        0.03910000       1.31440000       2.16080000
H       -0.31640000       1.73770000      -2.17350000
H       -2.83160000       1.45860000      -2.17830000
H       -2.79980000       1.11910000      -0.36770000
