21
Properties=species:S:1:pos:R:3 gdb_73836=T pbc="F F F"
C        0.10240000       1.56150000      -0.03170000
C       -0.00540000       0.06300000       0.05810000
C       -1.14980000      -0.63900000      -0.00190000
C       -2.53990000      -0.06930000      -0.12470000
C       -1.10010000      -2.13150000       0.05210000
O       -0.21040000      -2.82350000      -0.85850000
C        0.10630000      -2.82100000       0.53250000
C        1.27230000      -1.96680000       0.96380000
C        1.32860000      -0.65280000       0.16650000
H        0.77600000       1.84630000      -0.85080000
H       -0.85140000       2.06260000      -0.19980000
H        0.54460000       1.97360000       0.88510000
H       -2.56710000       1.01930000      -0.07290000
H       -3.00490000      -0.37250000      -1.07190000
H       -3.18760000      -0.45290000       0.67430000
H       -2.06190000      -2.63130000       0.16220000
H       -0.00250000      -3.78830000       1.02520000
H        1.15490000      -1.75690000       2.03540000
H        2.21460000      -2.51450000       0.85020000
H        1.69580000      -0.86890000      -0.84450000
H        2.06770000       0.01580000       0.62250000
