17
Properties=species:S:1:pos:R:3 gdb_44047=T pbc="F F F"
N       -0.00610000       1.15850000      -0.48500000
C       -0.03260000      -0.02540000      -0.08480000
O        1.00990000      -0.83970000       0.40640000
C        0.06560000      -1.92200000       0.64790000
C       -0.60000000      -1.99480000       2.04470000
C       -1.85210000      -1.24880000       1.43750000
C       -1.07540000      -1.12360000       0.08980000
N       -1.22270000      -2.05080000      -1.05690000
C       -0.17860000      -2.96330000      -0.47170000
H        0.93740000       1.54920000      -0.44780000
H       -0.78540000      -2.99910000       2.43180000
H       -0.05510000      -1.42150000       2.79620000
H       -2.74140000      -1.87750000       1.35290000
H       -2.13360000      -0.30780000       1.91230000
H       -2.14430000      -2.45180000      -1.18250000
H        0.66140000      -3.14460000      -1.14840000
H       -0.54860000      -3.92500000      -0.09590000
