23
Properties=species:S:1:pos:R:3 gdb_59775=T pbc="F F F"
C       -0.19150000       1.55380000      -0.03360000
C        0.01700000       0.03780000      -0.02670000
O        0.70860000      -0.39260000      -1.19670000
C        0.80870000      -0.48300000       1.18940000
C        0.74180000      -2.01880000       1.26830000
C        1.69490000      -2.56940000       2.33390000
C        3.15000000      -2.20050000       2.01160000
C        3.27680000      -0.76790000       1.56420000
C        2.24390000      -0.00630000       1.20680000
H        0.75960000       2.08770000      -0.10820000
H       -0.80750000       1.85000000      -0.89090000
H       -0.70920000       1.88440000       0.87300000
H       -0.97720000      -0.44060000       0.01460000
H        0.20410000      -0.10380000      -1.96330000
H        0.29610000      -0.06830000       2.07260000
H       -0.28810000      -2.33230000       1.47630000
H        1.00900000      -2.42550000       0.28640000
H        1.42490000      -2.14990000       3.31220000
H        1.58860000      -3.65640000       2.41900000
H        3.79090000      -2.37650000       2.88510000
H        3.54250000      -2.86200000       1.22450000
H        4.28120000      -0.35030000       1.53530000
H        2.42680000       1.02300000       0.91010000
