25
Properties=species:S:1:pos:R:3 gdb_121143=T pbc="F F F"
C       -0.15490000       1.37460000       0.06420000
O       -0.11030000      -0.02780000      -0.02010000
C        0.69750000      -0.49110000      -1.08450000
C        0.64170000      -2.00520000      -1.09300000
C       -0.67250000      -2.71090000      -1.51400000
C        0.17720000      -3.78670000      -2.23990000
C        1.40950000      -2.82490000      -2.19240000
C        1.58530000      -2.07560000      -3.51830000
C        2.73310000      -3.44320000      -1.75030000
H        0.84380000       1.80800000       0.23650000
H       -0.56820000       1.82850000      -0.85120000
H       -0.80060000       1.63360000       0.90730000
H        0.33510000      -0.07640000      -2.04030000
H        1.73750000      -0.13990000      -0.95540000
H        0.95100000      -2.35650000      -0.10230000
H       -1.33640000      -3.04550000      -0.71480000
H       -1.25780000      -2.10210000      -2.21020000
H        0.33220000      -4.67590000      -1.62130000
H       -0.15460000      -4.10990000      -3.23080000
H        0.64400000      -1.65020000      -3.88030000
H        2.31070000      -1.25880000      -3.42960000
H        1.95350000      -2.76070000      -4.29060000
H        3.11560000      -4.13910000      -2.50660000
H        3.50010000      -2.67530000      -1.59260000
H        2.61800000      -3.99810000      -0.81320000
