20
Properties=species:S:1:pos:R:3 gdb_116375=T pbc="F F F"
O        0.06540000       1.43330000      -0.05690000
C        0.06570000       0.02420000      -0.01350000
C       -1.34920000      -0.55220000      -0.03700000
C       -1.37480000      -2.07420000       0.00030000
C       -2.77000000      -2.65340000      -0.23530000
C       -3.75070000      -2.39850000       0.91420000
N       -4.12680000      -1.02950000       1.22460000
C       -3.34250000      -0.05090000       1.31270000
O       -1.99900000       0.07450000       1.08970000
H       -0.53960000       1.71800000       0.63830000
H        0.61100000      -0.32380000      -0.89650000
H        0.58910000      -0.35720000       0.87890000
H       -1.85890000      -0.19740000      -0.94420000
H       -0.69180000      -2.43510000      -0.77870000
H       -0.97360000      -2.42000000       0.96180000
H       -3.18500000      -2.24520000      -1.16600000
H       -2.69830000      -3.73860000      -0.37510000
H       -4.67800000      -2.94380000       0.70870000
H       -3.33820000      -2.84060000       1.83430000
H       -3.72740000       0.90190000       1.68020000
