18
Properties=species:S:1:pos:R:3 gdb_50843=T pbc="F F F"
N        0.43570000       0.85610000      -1.68600000
C       -0.12960000       0.34330000      -0.67430000
C       -1.60870000      -0.01220000      -0.72490000
C       -2.34180000       0.17840000       0.58280000
C       -3.56570000      -0.58030000       0.91550000
N       -2.30070000      -0.88840000       1.61770000
N        0.49380000       0.01980000       0.55610000
C        1.82240000       0.17620000       0.86420000
O        2.68380000       0.58150000       0.11620000
H        1.43070000       1.00130000      -1.51060000
H       -2.04410000       0.59820000      -1.52020000
H       -1.70700000      -1.06070000      -1.04120000
H       -2.24690000       1.17260000       1.01580000
H       -4.33340000      -0.12490000       1.53350000
H       -3.93410000      -1.30200000       0.19150000
H       -1.91590000      -1.73630000       1.20280000
H       -0.10620000      -0.28940000       1.30970000
H        2.03070000      -0.12380000       1.90920000
