21
Properties=species:S:1:pos:R:3 gdb_73986=T pbc="F F F"
C       -0.06820000       1.31640000      -0.18630000
C       -0.04200000      -0.12070000       0.24290000
C       -1.12360000      -0.91280000       0.26060000
C       -2.18330000      -0.96140000      -0.83660000
C       -1.64100000      -2.39660000      -1.09680000
C       -0.11680000      -2.66470000      -0.93180000
C        1.11980000      -1.76260000      -1.08190000
C        1.27290000      -0.86570000       0.19570000
C       -0.98200000      -2.43170000       0.26720000
H        0.49930000       1.46600000      -1.11560000
H       -1.08800000       1.67820000      -0.34080000
H        0.40390000       1.95860000       0.56860000
H       -3.22020000      -1.04100000      -0.48950000
H       -2.12510000      -0.21030000      -1.63190000
H       -2.24240000      -3.18010000      -1.54920000
H        0.07850000      -3.71190000      -1.15820000
H        2.00570000      -2.39550000      -1.21340000
H        1.06620000      -1.11740000      -1.96640000
H        2.13300000      -0.19480000       0.11150000
H        1.43650000      -1.51080000       1.06430000
H       -1.13250000      -3.10860000       1.09910000
