13
Properties=species:S:1:pos:R:3 gdb_123981=T pbc="F F F"
C       -0.00760000       1.49580000      -0.05110000
N        1.35840000       2.01170000       0.11090000
C        2.35250000       1.25160000       0.25480000
O        2.40960000      -0.12570000       0.29380000
C        1.17550000      -0.69630000       0.14990000
C        0.03290000       0.00930000      -0.01170000
O       -1.00150000      -0.83330000      -0.12390000
N       -0.52530000      -2.14700000      -0.03300000
C        0.77530000      -2.05260000       0.13020000
H       -0.63870000       1.91540000       0.74340000
H       -0.41730000       1.87530000      -0.99640000
H        3.35520000       1.65150000       0.37320000
H        1.36800000      -2.94990000       0.22630000
