25
Properties=species:S:1:pos:R:3 gdb_112619=T pbc="F F F"
C        0.14730000       1.42860000      -0.20240000
C        0.03280000      -0.07600000       0.06260000
C       -1.40620000      -0.57620000       0.08470000
C       -2.20820000      -0.59620000      -1.25000000
C       -2.75830000      -2.00990000      -0.87950000
C       -4.17150000      -1.95530000      -0.29570000
C       -2.65900000      -3.04280000      -2.00070000
O       -2.88780000      -4.37710000      -1.56880000
C       -1.65640000      -2.10380000       0.22180000
H        1.19220000       1.75370000      -0.21830000
H       -0.29850000       1.69700000      -1.16650000
H       -0.36980000       2.00640000       0.57200000
H        0.59170000      -0.62910000      -0.70480000
H        0.51200000      -0.31870000       1.02070000
H       -1.96550000      -0.02720000       0.85140000
H       -2.94710000       0.19370000      -1.41160000
H       -1.54530000      -0.62970000      -2.12280000
H       -4.90950000      -1.70050000      -1.06630000
H       -4.45530000      -2.91670000       0.14860000
H       -4.24770000      -1.20330000       0.49620000
H       -3.34170000      -2.76560000      -2.82230000
H       -1.64300000      -3.04010000      -2.41070000
H       -3.81910000      -4.46120000      -1.34480000
H       -0.79720000      -2.69430000      -0.11230000
H       -1.96600000      -2.47600000       1.20210000
