12
Properties=species:S:1:pos:R:3 gdb_132664=T pbc="F F F"
N       -0.02850000       1.38760000       0.17160000
C       -0.02240000       0.01630000       0.06330000
N       -1.17020000      -0.65250000       0.04400000
C       -1.12100000      -1.98950000       0.00210000
C        0.09490000      -2.64860000      -0.03040000
F        0.14470000      -3.97480000      -0.07390000
N        1.25420000      -2.00690000      -0.02720000
C        1.18810000      -0.70840000       0.02020000
F        2.33030000      -0.01930000       0.01500000
H        0.79780000       1.86580000      -0.15030000
H       -0.90420000       1.82490000      -0.07200000
H       -2.05750000      -2.53590000      -0.01150000
