16
Properties=species:S:1:pos:R:3 gdb_14675=T pbc="F F F"
O        0.15210000       1.20780000      -0.64670000
C        0.00150000       0.14810000       0.28730000
C       -1.35130000      -0.40780000       0.32800000
C       -2.47000000      -0.85500000       0.31770000
C       -3.81470000      -1.41550000       0.30780000
C       -3.88530000      -2.79780000      -0.38320000
C       -5.26590000      -3.40680000      -0.27860000
O       -5.90020000      -3.84040000      -1.20420000
H       -0.17300000       0.89180000      -1.49610000
H        0.72160000      -0.66320000       0.09330000
H        0.26330000       0.57340000       1.26260000
H       -4.18320000      -1.50440000       1.33870000
H       -4.49730000      -0.72080000      -0.19810000
H       -3.60050000      -2.73350000      -1.43580000
H       -3.18270000      -3.47600000       0.11960000
H       -5.67640000      -3.43320000       0.75940000
