13
Properties=species:S:1:pos:R:3 gdb_130108=T pbc="F F F"
N        0.09570000       1.37740000       0.16000000
C        0.03260000       0.00160000       0.03120000
N       -1.04590000      -0.74810000      -0.01460000
N       -0.67750000      -2.10760000      -0.03740000
C        0.62160000      -2.07900000      -0.01890000
N        1.73900000      -2.89180000      -0.03490000
C        2.82570000      -2.04670000       0.00010000
N        2.51680000      -0.77880000       0.03980000
N        1.13670000      -0.81330000       0.03040000
H        0.79320000       1.80970000      -0.43350000
H       -0.81690000       1.78770000       0.00850000
H        1.75080000      -3.89520000      -0.07460000
H        3.84150000      -2.41000000      -0.00500000
