20
Properties=species:S:1:pos:R:3 gdb_91638=T pbc="F F F"
O        0.07190000       1.39840000      -0.16340000
C       -0.00330000      -0.00570000      -0.01210000
C        0.63320000      -0.56070000       1.31090000
C       -0.52020000      -1.37610000       1.92980000
C       -1.15520000      -1.97430000       0.65190000
C       -1.45130000      -0.59250000       0.04300000
C       -2.13710000       0.13430000       1.19560000
C       -2.88890000      -0.61660000       2.23220000
N       -1.46060000      -0.33630000       2.44290000
H       -0.15580000       1.80040000       0.68130000
H        0.51160000      -0.40760000      -0.88990000
H        1.50820000      -1.18440000       1.10960000
H        0.94350000       0.25490000       1.97010000
H       -0.23390000      -2.07140000       2.72020000
H       -0.43030000      -2.54430000       0.06450000
H       -2.02890000      -2.60710000       0.80740000
H       -1.97820000      -0.56400000      -0.91140000
H       -2.29690000       1.20440000       1.09930000
H       -3.53500000      -0.05290000       2.89890000
H       -3.22750000      -1.63040000       2.04760000
