19
Properties=species:S:1:pos:R:3 gdb_30679=T pbc="F F F"
C        0.04030000       1.61190000       0.17120000
C       -0.03360000       0.08470000       0.08510000
C        0.77470000      -0.57680000       1.22160000
O        2.15190000      -0.22850000       1.19670000
C       -1.43930000      -0.44210000       0.08540000
C       -2.61940000       0.21400000       0.33330000
N       -3.60660000      -0.74280000       0.22370000
C       -2.99370000      -1.91960000      -0.08070000
N       -1.69310000      -1.77740000      -0.17150000
H        1.08410000       1.93070000       0.21460000
H       -0.43820000       2.08740000      -0.69030000
H       -0.45420000       1.97590000       1.07970000
H        0.43350000      -0.23810000      -0.85790000
H        0.39580000      -0.22760000       2.18920000
H        0.63100000      -1.66420000       1.18000000
H        2.54130000      -0.64180000       0.41940000
H       -2.84910000       1.24030000       0.56300000
H       -4.59460000      -0.59330000       0.33930000
H       -3.54500000      -2.83700000      -0.22530000
