17
Properties=species:S:1:pos:R:3 gdb_16398=T pbc="F F F"
N       -0.07390000       1.26550000      -0.28530000
C       -0.04100000       0.04140000       0.03400000
O        1.12240000      -0.57560000       0.40790000
C        1.10750000      -1.97240000       0.76250000
C       -0.28090000      -2.58790000       0.66230000
C       -0.91890000      -2.16930000      -0.68840000
C       -1.26470000      -0.82920000       0.02970000
C       -1.29860000      -1.64580000       1.35760000
H        0.86220000       1.67120000      -0.21540000
H        1.81030000      -2.48080000       0.09130000
H        1.49600000      -2.04740000       1.78540000
H       -0.24740000      -3.64440000       0.93890000
H       -0.28060000      -2.12940000      -1.57520000
H       -1.82120000      -2.74370000      -0.90920000
H       -2.13100000      -0.24870000      -0.27960000
H       -2.26850000      -2.12690000       1.50110000
H       -0.99610000      -1.14290000       2.28010000
