23
Properties=species:S:1:pos:R:3 gdb_75304=T pbc="F F F"
C       -0.04480000       1.50860000       0.01410000
C       -0.00550000       0.00580000       0.00180000
C       -0.01830000      -0.70500000      -1.13070000
C        0.02250000      -2.21330000      -1.09320000
C        0.07580000      -2.69630000       0.36360000
C        1.14530000      -1.88870000       1.15090000
C        0.05190000      -0.78120000       1.31950000
C        0.06530000       0.05440000       2.58940000
C       -0.98940000      -1.94490000       1.21030000
H        0.83610000       1.93690000       0.50810000
H       -0.08330000       1.90330000      -1.00490000
H       -0.91850000       1.89060000       0.55640000
H       -0.05820000      -0.21160000      -2.09890000
H       -0.85800000      -2.63290000      -1.60140000
H        0.89420000      -2.58670000      -1.65020000
H        0.10620000      -3.78670000       0.42710000
H        1.38040000      -2.36340000       2.10880000
H        2.07090000      -1.61320000       0.63790000
H        0.93420000       0.72040000       2.63180000
H       -0.83340000       0.67420000       2.68090000
H        0.10680000      -0.59800000       3.46760000
H       -1.95530000      -1.71920000       0.74990000
H       -1.14560000      -2.42990000       2.17910000
