15
Properties=species:S:1:pos:R:3 gdb_48094=T pbc="F F F"
N        0.08660000       1.44550000       0.53860000
C        0.09300000       0.18460000       0.28850000
C       -1.26510000      -0.46720000       0.30580000
O       -1.47110000      -1.63620000       0.09590000
N        1.16250000      -0.61900000       0.04560000
C        1.28560000      -1.97970000      -0.51630000
C        2.77150000      -1.64470000      -0.75020000
O        3.71270000      -2.23610000      -1.17480000
C        2.54650000      -0.21320000      -0.20720000
H        1.02580000       1.84780000       0.52160000
H       -2.06440000       0.26260000       0.53470000
H        1.08850000      -2.79330000       0.18770000
H        0.71310000      -2.16200000      -1.43190000
H        2.66370000       0.57790000      -0.96140000
H        3.12880000       0.05030000       0.68420000
