16
Properties=species:S:1:pos:R:3 gdb_16525=T pbc="F F F"
O       -0.05090000       1.34230000      -0.01710000
C        0.02920000      -0.04740000      -0.04750000
C        1.06200000      -0.74320000      -0.93870000
C        0.40340000      -2.10890000      -1.28320000
C       -0.71500000      -2.22040000      -0.24980000
O       -0.09730000      -2.18870000       1.08700000
C       -0.44170000      -0.80810000       1.18520000
C       -1.28430000      -0.79970000      -0.05510000
H        0.67910000       1.67340000       0.51770000
H        1.24240000      -0.13290000      -1.82790000
H        2.01880000      -0.87770000      -0.42430000
H       -0.02380000      -2.10130000      -2.29250000
H        1.09860000      -2.94970000      -1.21420000
H       -1.39730000      -3.06600000      -0.35050000
H       -0.57890000      -0.36710000       2.16660000
H       -2.26170000      -0.39810000      -0.28140000
