19
Properties=species:S:1:pos:R:3 gdb_93744=T pbc="F F F"
C        0.04310000       1.47410000       0.06110000
C        0.08240000      -0.01550000      -0.03130000
C       -0.03920000      -0.75990000      -1.14960000
C       -0.22570000      -0.27610000      -2.46690000
C       -0.39660000       0.10460000      -3.59810000
C        0.13980000      -2.24600000      -0.86470000
O        1.36050000      -2.74710000      -1.40240000
C        0.04890000      -2.31830000       0.68070000
C        0.29370000      -0.88010000       1.18980000
H        0.97020000       1.86220000       0.50270000
H       -0.09430000       1.93390000      -0.91980000
H       -0.77240000       1.80250000       0.71810000
H       -0.54060000       0.44060000      -4.59480000
H       -0.63170000      -2.85460000      -1.34510000
H        2.05750000      -2.12130000      -1.17630000
H       -0.95270000      -2.64840000       0.97190000
H        0.76140000      -3.05040000       1.06740000
H        1.30660000      -0.73350000       1.59180000
H       -0.38810000      -0.60340000       2.00310000
