17
Properties=species:S:1:pos:R:3 gdb_74535=T pbc="F F F"
N        0.06010000       1.33060000      -0.21900000
C       -0.05380000      -0.01660000      -0.04150000
N       -1.14010000      -0.69990000       0.03340000
C       -0.70620000      -2.07270000       0.04810000
C        0.05330000      -2.62560000      -1.12970000
C        0.81480000      -2.04420000       0.02710000
C        0.87470000      -2.91660000       1.28700000
C       -0.69840000      -3.01050000       1.27120000
O        1.16730000      -0.67520000      -0.02210000
H        0.91420000       1.74360000       0.12290000
H       -0.78130000       1.84780000      -0.01830000
H        0.09480000      -3.69850000      -1.29700000
H        0.02840000      -2.02190000      -2.02920000
H        1.44260000      -3.84860000       1.20550000
H        1.24250000      -2.35390000       2.14680000
H       -1.15710000      -2.55270000       2.14860000
H       -1.13170000      -4.00340000       1.11900000
