19
Properties=species:S:1:pos:R:3 gdb_106713=T pbc="F F F"
C        0.31860000       1.42960000       0.27290000
C       -0.21190000       0.04390000      -0.12260000
C        0.42510000      -0.48100000      -1.37030000
O        1.79920000      -0.92550000      -1.32150000
C        0.80130000      -1.85130000      -1.79900000
C        0.66050000      -3.18100000      -1.13550000
C        0.51050000      -1.46950000      -3.25220000
O       -0.85570000      -1.02640000      -3.31800000
C        0.13990000      -0.11100000      -2.82910000
H        1.39860000       1.39430000       0.44220000
H        0.12380000       2.16870000      -0.51120000
H       -0.16100000       1.78210000       1.19050000
H       -0.03220000      -0.66700000       0.69130000
H       -1.29600000       0.08330000      -0.28260000
H        0.69160000      -3.07650000      -0.04780000
H       -0.28900000      -3.64480000      -1.42000000
H        1.47220000      -3.85380000      -1.43330000
H        0.97990000      -1.80120000      -4.17020000
H        0.26240000       0.82880000      -3.35290000
