19
Properties=species:S:1:pos:R:3 gdb_17006=T pbc="F F F"
C       -0.04270000       1.55930000      -0.31130000
C        1.52740000       1.58550000      -0.32620000
C        1.52010000       0.13940000       0.20920000
C        2.04710000      -0.49660000       1.47440000
C        0.81200000      -1.29640000       2.00020000
C       -0.45870000      -0.53850000       1.49790000
C        0.02290000       0.11440000       0.22330000
N        0.77810000      -0.76580000      -0.66940000
H       -0.45900000       2.26460000       0.41220000
H       -0.56330000       1.69830000      -1.26510000
H        2.02500000       1.74150000      -1.28950000
H        1.93350000       2.30450000       0.38960000
H        2.91990000      -1.14290000       1.33700000
H        2.32960000       0.29330000       2.18100000
H        0.82470000      -2.29820000       1.56600000
H        0.82410000      -1.40830000       3.08810000
H       -1.31180000      -1.21370000       1.37670000
H       -0.75420000       0.24170000       2.20990000
H        0.76360000      -0.43840000      -1.63210000
