16
Properties=species:S:1:pos:R:3 gdb_85477=T pbc="F F F"
C       -0.40490000       1.55430000       0.02890000
C        0.13680000       0.14310000      -0.05160000
O        1.18350000       0.06940000      -1.03280000
C        2.11530000      -0.85610000      -0.65090000
N        3.12550000      -1.23150000      -1.30440000
N        1.75470000      -1.34410000       0.60410000
C        0.80880000      -0.43850000       1.22650000
C        1.44810000       0.58330000       2.07990000
N        1.95880000       1.36250000       2.76380000
H        0.37890000       2.26010000       0.31340000
H       -0.80830000       1.84850000      -0.94290000
H       -1.21150000       1.60910000       0.76620000
H       -0.65370000      -0.55940000      -0.34430000
H        3.15760000      -0.77600000      -2.21320000
H        2.50250000      -1.74500000       1.15040000
H        0.07440000      -0.97480000       1.83520000
