20
Properties=species:S:1:pos:R:3 gdb_89125=T pbc="F F F"
O       -0.17880000       1.41680000      -0.19060000
C       -0.09680000       0.02550000      -0.06580000
C       -0.56230000      -0.63380000       1.20890000
C       -1.39290000      -0.73100000      -0.06090000
C       -2.71750000      -0.00650000      -0.17000000
C       -3.85320000      -0.77290000       0.52070000
N       -5.13560000      -0.09450000       0.41190000
C       -6.18020000      -0.58080000      -0.31010000
O       -6.19540000      -1.63880000      -0.90340000
H        0.51080000       1.80380000       0.35840000
H        0.74290000      -0.42740000      -0.59260000
H       -0.04080000      -1.51180000       1.57410000
H       -0.93140000       0.03150000       1.98360000
H       -1.36670000      -1.69370000      -0.56560000
H       -2.61880000       0.99460000       0.26330000
H       -2.97830000       0.13630000      -1.22550000
H       -3.99320000      -1.75470000       0.06240000
H       -3.60790000      -0.93130000       1.57820000
H       -5.23700000       0.81750000       0.82870000
H       -7.04560000       0.11200000      -0.29120000
