18
Properties=species:S:1:pos:R:3 gdb_7317=T pbc="F F F"
C        1.03400000       1.26410000       0.58020000
N        0.68960000      -0.13330000       0.42720000
C        1.03220000      -0.70390000      -0.65130000
N        0.74700000      -2.04100000      -0.89050000
C        0.03160000      -2.77480000       0.15430000
C        1.10280000      -2.71170000      -2.06130000
C        1.84540000      -1.92820000      -3.13260000
O        0.82930000      -3.88350000      -2.22170000
H        1.57160000       1.69020000      -0.28300000
H        0.12340000       1.85260000       0.74260000
H        1.65750000       1.39470000       1.47230000
H        1.56730000      -0.19700000      -1.45850000
H       -0.93160000      -2.29770000       0.34950000
H       -0.10660000      -3.79480000      -0.19510000
H        0.60890000      -2.75700000       1.08160000
H        2.80190000      -1.54240000      -2.76750000
H        2.03070000      -2.61650000      -3.95630000
H        1.25860000      -1.08110000      -3.50020000
