18
Properties=species:S:1:pos:R:3 gdb_127483=T pbc="F F F"
C       -0.45570000       1.18520000       0.26420000
N       -0.13190000      -0.22330000       0.19100000
N       -0.21100000      -0.86400000      -1.00480000
C        0.20730000      -2.10300000      -0.75860000
N        0.32360000      -3.03500000      -1.79130000
C        0.54620000      -2.27410000       0.60330000
C        0.31820000      -1.03660000       1.18050000
C        0.49790000      -0.59180000       2.59780000
O       -0.70090000      -0.10150000       3.19840000
H        0.40700000       1.80910000       0.00180000
H       -1.26020000       1.39020000      -0.44400000
H       -0.78680000       1.42070000       1.27630000
H       -0.18580000      -2.73820000      -2.61410000
H        0.04320000      -3.96800000      -1.52110000
H        0.91250000      -3.16110000       1.09540000
H        0.92050000      -1.42840000       3.17100000
H        1.20900000       0.23880000       2.66760000
H       -1.37710000      -0.77730000       3.07880000
