16
Properties=species:S:1:pos:R:3 gdb_8393=T pbc="F F F"
C       -0.11730000       1.39660000       0.36250000
C       -0.01330000      -0.03820000      -0.09610000
O        1.01190000      -0.56250000      -0.46670000
C       -1.28990000      -0.83560000      -0.07460000
C       -2.07290000      -1.45740000      -1.26640000
C       -2.90580000      -1.59550000       0.02840000
C       -1.64850000      -2.08180000       0.78470000
O       -2.55120000      -0.19740000       0.38070000
H        0.85920000       1.87830000       0.30580000
H       -0.84730000       1.93140000      -0.25490000
H       -0.50480000       1.43130000       1.38660000
H       -2.45290000      -0.73640000      -1.99060000
H       -1.66390000      -2.35990000      -1.72390000
H       -3.94740000      -1.88830000       0.15480000
H       -1.20380000      -3.03700000       0.50000000
H       -1.65590000      -1.90910000       1.86120000
