20
Properties=species:S:1:pos:R:3 gdb_59404=T pbc="F F F"
C        0.18370000       1.49030000       0.17260000
C       -0.14990000       0.00660000       0.01190000
O       -1.55530000      -0.22710000       0.00340000
C        0.50060000      -0.56730000      -1.23260000
N        1.87950000      -1.05350000      -1.11650000
C        0.79350000      -2.02670000      -1.41940000
C        0.50270000      -3.06280000      -0.34910000
C        0.71440000      -2.51770000      -2.77440000
C        0.66530000      -2.94340000      -3.89890000
H        1.26530000       1.63540000       0.25260000
H       -0.17170000       2.06520000      -0.69220000
H       -0.29470000       1.89150000       1.06990000
H        0.22170000      -0.53480000       0.88570000
H       -1.93330000       0.26690000      -0.73270000
H        0.23880000      -0.03310000      -2.14760000
H        2.40450000      -0.84770000      -1.96270000
H        0.69140000      -2.65550000       0.64480000
H       -0.53910000      -3.38970000      -0.40580000
H        1.14790000      -3.93520000      -0.48740000
H        0.61500000      -3.31670000      -4.89170000
