19
Properties=species:S:1:pos:R:3 gdb_36499=T pbc="F F F"
C       -0.02800000      -1.24020000      -0.06990000
C       -0.01300000      -0.04180000       0.01680000
C        0.00870000       1.41310000       0.09710000
C        1.42160000       2.00880000       0.03770000
C        1.41040000       3.53640000      -0.09870000
C        2.78590000       4.08980000       0.16970000
C        3.72570000       3.35830000       0.76270000
C        3.45470000       1.96030000       1.24470000
O        2.07970000       1.62770000       1.23560000
H       -0.04200000      -2.29960000      -0.13570000
H       -0.58570000       1.83770000      -0.72160000
H       -0.45780000       1.74440000       1.03330000
H        1.95430000       1.58020000      -0.82710000
H        1.07880000       3.81420000      -1.10740000
H        0.67780000       3.96990000       0.59750000
H        2.99390000       5.10770000      -0.14850000
H        4.72870000       3.74490000       0.92250000
H        4.03240000       1.23400000       0.64320000
H        3.78650000       1.84150000       2.28310000
