13
Properties=species:S:1:pos:R:3 gdb_27837=T pbc="F F F"
N        0.04760000       1.34410000      -0.06140000
C       -0.01450000      -0.00730000      -0.02630000
C       -1.20680000      -0.70350000      -0.00750000
C       -1.22370000      -2.11600000       0.00070000
O       -2.10710000      -2.92030000       0.01540000
O        0.14140000      -2.69170000      -0.00970000
C        1.19830000      -1.89950000      -0.02240000
O        2.35080000      -2.56340000      -0.02470000
N        1.21930000      -0.61250000      -0.03120000
H        0.94960000       1.77380000       0.05250000
H       -0.77660000       1.90130000       0.07520000
H       -2.16400000      -0.20050000      -0.00330000
H        2.14670000      -3.50860000      -0.01610000
