20
Properties=species:S:1:pos:R:3 gdb_67274=T pbc="F F F"
C       -0.07670000       1.52270000       0.02510000
C        0.02010000       0.02820000       0.01410000
C        0.73440000      -0.87030000      -1.05540000
C        1.73900000      -1.31830000       0.03100000
C        0.69920000      -0.88840000       1.09120000
C       -0.59970000      -1.76170000       1.02620000
C       -0.54260000      -2.88810000      -0.01960000
C       -0.56570000      -1.74420000      -1.04760000
N       -1.23510000      -0.82910000      -0.01360000
H        0.91810000       1.98250000       0.04520000
H       -0.60250000       1.88340000      -0.86590000
H       -0.63130000       1.86850000       0.90450000
H        1.09750000      -0.52060000      -2.02210000
H        2.10090000      -2.35090000       0.02820000
H        2.60160000      -0.64480000       0.05080000
H        1.03040000      -0.55510000       2.07500000
H       -1.13110000      -1.91880000       1.96700000
H        0.28790000      -3.59820000      -0.01200000
H       -1.48770000      -3.43710000      -0.03970000
H       -1.06590000      -1.88530000      -2.00790000
