22
Properties=species:S:1:pos:R:3 gdb_111987=T pbc="F F F"
C       -0.04580000       1.56490000      -0.11430000
C        0.04620000       0.03780000      -0.05030000
C        0.71580000      -0.49970000       1.22930000
C       -0.03730000      -0.20910000       2.51940000
C       -0.28950000      -1.31090000       3.22750000
C        0.22410000      -2.53300000       2.52700000
C        0.71630000      -3.72420000       3.30600000
N       -0.48080000      -2.72930000       1.22280000
C        0.82570000      -2.02590000       1.26480000
H        0.94340000       2.02970000      -0.02910000
H       -0.48320000       1.89050000      -1.06340000
H       -0.67090000       1.96850000       0.68890000
H       -0.94960000      -0.40950000      -0.12970000
H        0.61940000      -0.32360000      -0.91400000
H        1.72680000      -0.06670000       1.28900000
H       -0.35010000       0.79140000       2.79630000
H       -0.81600000      -1.35200000       4.17470000
H       -0.10620000      -4.21630000       3.83840000
H        1.17750000      -4.46530000       2.64460000
H        1.46270000      -3.42730000       4.05070000
H       -0.30930000      -3.68390000       0.90730000
H        1.68360000      -2.51090000       0.80900000
