19
Properties=species:S:1:pos:R:3 gdb_39397=T pbc="F F F"
C        0.02120000       1.53520000       0.00500000
C        1.27150000       0.68730000      -0.05540000
O        2.10710000       0.44320000       1.03240000
C        2.45060000      -0.95750000       1.14610000
O        1.79700000      -1.82510000       0.26360000
C        0.36350000      -1.94980000       0.30200000
C       -0.29260000      -0.86810000       1.18890000
C       -0.07510000       0.03490000      -0.02780000
C       -0.23250000      -1.19200000      -0.93520000
H       -0.25850000       1.99340000       0.94840000
H       -0.19670000       2.13920000      -0.87020000
H        1.77900000       0.69480000      -1.02080000
H        3.51380000      -1.07390000       0.90880000
H        2.27690000      -1.22600000       2.19770000
H        0.11550000      -3.00450000       0.44970000
H       -1.35200000      -1.09230000       1.34610000
H        0.16800000      -0.60070000       2.13960000
H        0.34850000      -1.22790000      -1.85900000
H       -1.26850000      -1.49420000      -1.12070000
