16
Properties=species:S:1:pos:R:3 gdb_128018=T pbc="F F F"
C       -0.15930000       1.60860000      -0.06000000
N        0.07860000       0.18230000      -0.05650000
C       -0.91430000      -0.57410000       0.12280000
N       -0.85670000      -1.96160000       0.15370000
C        0.22020000      -2.80350000       0.00670000
C        0.26520000      -4.17370000       0.03930000
C        1.63750000      -4.44180000      -0.17160000
N        2.35660000      -3.35670000      -0.31750000
O        1.43510000      -2.29480000      -0.20150000
H        0.44460000       2.08340000       0.72190000
H        0.16920000       2.03330000      -1.01550000
H       -1.21490000       1.88660000       0.09940000
H       -1.94530000      -0.22220000       0.27610000
H       -1.73310000      -2.43200000       0.30650000
H       -0.54600000      -4.86560000       0.18860000
H        2.13220000      -5.40200000      -0.22260000
