21
Properties=species:S:1:pos:R:3 gdb_103656=T pbc="F F F"
C        0.43700000       0.90490000      -0.39830000
O        0.34060000      -0.41250000       0.10360000
C        0.66890000      -0.60740000       1.50380000
C       -0.36860000       0.05750000       2.40620000
C        0.75470000      -2.13910000       1.66400000
C        2.20540000      -2.48760000       1.26610000
O        2.35320000      -2.77410000      -0.12140000
C        2.94640000      -1.21680000       1.64890000
C        2.10980000      -0.18780000       1.77440000
H        1.45540000       1.30890000      -0.31480000
H        0.16910000       0.85460000      -1.45670000
H       -0.25620000       1.59670000       0.09900000
H       -1.37260000      -0.30290000       2.16220000
H       -0.16020000      -0.17520000       3.45470000
H       -0.36110000       1.14710000       2.30500000
H        0.57900000      -2.40620000       2.71040000
H        0.02100000      -2.65440000       1.04060000
H        2.58060000      -3.37460000       1.78490000
H        1.90980000      -2.05130000      -0.58510000
H        4.02720000      -1.17320000       1.72520000
H        2.39040000       0.83690000       1.99290000
