17
Properties=species:S:1:pos:R:3 gdb_64686=T pbc="F F F"
C       -0.07270000       1.67670000       0.18480000
C       -0.05700000       0.16700000       0.06230000
C       -1.37400000      -0.45380000      -0.40490000
C       -1.73020000      -0.04140000      -1.76410000
N       -1.99600000       0.29330000      -2.83750000
C        1.21260000      -0.52370000      -0.33700000
C        0.70770000      -0.66160000       1.09490000
C        1.40670000      -0.01740000       2.17060000
N        1.96480000       0.50550000       3.03880000
H        0.88340000       2.05580000       0.55190000
H       -0.27280000       2.13400000      -0.78910000
H       -0.85120000       2.00530000       0.88170000
H       -1.31550000      -1.54760000      -0.38330000
H       -2.18800000      -0.16540000       0.27100000
H        1.16100000      -1.41180000      -0.95700000
H        2.09360000       0.08730000      -0.49390000
H        0.27860000      -1.62020000       1.36870000
