19
Properties=species:S:1:pos:R:3 gdb_98555=T pbc="F F F"
O        0.02330000       1.39890000       0.26620000
C       -0.10540000       0.03260000       0.51410000
C       -1.31740000      -0.54120000      -0.21330000
O       -2.01690000       0.21800000      -0.86480000
C       -1.59730000      -1.97870000      -0.08980000
C       -2.45650000      -2.67590000      -1.12780000
C       -2.98510000      -2.60340000       0.25590000
C       -2.29950000      -3.62930000       1.16440000
C       -0.90480000      -3.01640000       0.80770000
H       -0.73530000       1.61430000      -0.30280000
H        0.79020000      -0.52400000       0.18960000
H       -0.21750000      -0.17130000       1.59260000
H       -2.90760000      -1.99700000      -1.84240000
H       -2.10500000      -3.62140000      -1.53440000
H       -3.88280000      -2.04470000       0.49060000
H       -2.54830000      -3.50260000       2.21940000
H       -2.45920000      -4.67690000       0.89100000
H       -0.19310000      -3.67560000       0.30120000
H       -0.41270000      -2.58190000       1.68010000
