21
Properties=species:S:1:pos:R:3 gdb_38186=T pbc="F F F"
C       -0.06950000       1.55970000      -0.06930000
C        1.47740000       1.53720000       0.06000000
C        1.37300000       0.07660000       0.58910000
C       -0.05780000       0.00810000      -0.02290000
C        2.40940000      -0.93780000       0.15740000
C        3.86640000      -0.83920000       0.75860000
C        3.68060000      -2.25430000       1.31900000
O        2.53540000      -2.22200000       2.18050000
C        2.31980000      -2.35240000       0.76980000
H       -0.54290000       1.98630000       0.81970000
H       -0.49850000       2.03910000      -0.95230000
H        1.96270000       1.57040000      -0.92170000
H        1.95110000       2.28190000       0.70470000
H        1.31220000       0.07620000       1.68200000
H       -0.83630000      -0.49470000       0.55600000
H       -0.04030000      -0.42430000      -1.02960000
H        2.45790000      -0.99520000      -0.93630000
H        4.63570000      -0.77100000      -0.01400000
H        4.03430000      -0.06510000       1.51180000
H        4.42230000      -3.01990000       1.51560000
H        1.74570000      -3.21000000       0.43720000
