18
Properties=species:S:1:pos:R:3 gdb_116116=T pbc="F F F"
O       -0.00520000       1.40900000       0.09830000
C        0.03040000       0.00210000       0.03240000
C       -1.36970000      -0.59520000      -0.05510000
C       -1.40810000      -2.11450000      -0.09770000
C       -2.86590000      -2.56500000      -0.10730000
N       -3.59970000      -1.82650000       0.90790000
C       -3.23000000      -0.66320000       1.52550000
O       -3.87400000      -0.13550000       2.39690000
O       -2.04990000      -0.11280000       1.12250000
H       -0.59170000       1.63340000       0.83090000
H        0.59570000      -0.26370000      -0.86720000
H        0.54780000      -0.43700000       0.90100000
H       -1.87800000      -0.17440000      -0.93440000
H       -0.89460000      -2.48380000      -0.99020000
H       -0.89160000      -2.51400000       0.78220000
H       -3.30110000      -2.39620000      -1.10320000
H       -2.94220000      -3.63750000       0.10170000
H       -4.48860000      -2.17600000       1.22650000
