21
Properties=species:S:1:pos:R:3 gdb_22560=T pbc="F F F"
C        0.51700000       0.12070000       1.19960000
C        0.48290000      -0.96250000       0.11350000
C        0.49890000      -0.41150000      -1.30500000
C       -0.37750000      -1.07810000      -2.31920000
N       -0.73110000       0.24890000      -1.80480000
C        1.77770000       0.20790000      -1.78830000
C        1.80250000       1.00060000      -3.06630000
N        2.81230000      -0.00750000      -1.06530000
O        3.96710000       0.56120000      -1.62610000
H        1.44220000       0.69780000       1.14340000
H       -0.32360000       0.81630000       1.09870000
H        0.45610000      -0.33120000       2.19440000
H        1.33610000      -1.63490000       0.24160000
H       -0.42300000      -1.57030000       0.23130000
H       -0.08830000      -1.09850000      -3.36630000
H       -0.94600000      -1.94420000      -1.99080000
H       -1.46060000       0.17120000      -1.10010000
H        0.79090000       1.25210000      -3.38330000
H        2.37950000       1.91700000      -2.91860000
H        2.30980000       0.43760000      -3.85780000
H        4.63660000       0.34470000      -0.96880000
