11
Properties=species:S:1:pos:R:3 gdb_204=T pbc="F F F"
C       -0.01150000       1.50030000       0.04340000
C        0.00270000       0.01100000      -0.02730000
C       -0.07750000      -0.81010000      -1.10250000
O       -0.02270000      -2.10700000      -0.66420000
C        0.08970000      -1.99350000       0.67650000
N        0.11070000      -0.78060000       1.11870000
H        0.90680000       1.87730000       0.50530000
H       -0.10200000       1.94060000      -0.95280000
H       -0.84890000       1.85350000       0.65410000
H       -0.16970000      -0.66590000      -2.16500000
H        0.14980000      -2.91300000       1.23760000
