18
Properties=species:S:1:pos:R:3 gdb_42826=T pbc="F F F"
O       -0.02410000       0.01740000       0.06600000
C       -0.03840000       1.21310000       0.00350000
C       -1.11770000       2.29600000       0.09490000
C       -0.01510000       3.15440000       0.79710000
C        1.03640000       2.31490000      -0.00540000
C        1.12190000       2.92240000      -1.40300000
C        0.68460000       2.15260000      -2.59920000
N       -0.15530000       3.22720000      -2.06260000
C       -1.37650000       2.86970000      -1.32230000
H       -2.05380000       2.07310000       0.61010000
H       -0.03140000       4.22780000       0.59570000
H        0.03320000       2.97010000       1.87160000
H        2.01790000       2.09970000       0.41950000
H        1.88350000       3.69300000      -1.51150000
H        1.11780000       2.35790000      -3.57470000
H        0.37970000       1.11860000      -2.44990000
H       -1.96850000       2.16430000      -1.91600000
H       -1.97290000       3.78300000      -1.20950000
