15
Properties=species:S:1:pos:R:3 gdb_20597=T pbc="F F F"
C        0.22830000       1.49950000      -0.02170000
C        0.10880000       0.00670000      -0.03300000
C       -0.00930000      -0.83850000      -1.09890000
C       -0.03820000      -0.62700000      -2.58310000
O        0.92700000       0.31530000      -3.02540000
O       -0.10210000      -2.11530000      -0.67350000
N       -0.05480000      -2.14190000       0.71470000
C        0.07180000      -0.88900000       1.07450000
H        1.03680000       1.82800000       0.63990000
H        0.43750000       1.87230000      -1.02580000
H       -0.69280000       1.97390000       0.33580000
H        0.07420000      -1.60330000      -3.07530000
H       -1.00590000      -0.21700000      -2.89190000
H        1.79500000      -0.00780000      -2.76050000
H        0.13600000      -0.65190000       2.12820000
