21
Properties=species:S:1:pos:R:3 gdb_101177=T pbc="F F F"
C        0.08320000       1.46460000       0.07770000
C        0.15180000      -0.06990000       0.08660000
C        0.90220000      -0.58180000       1.31960000
O        2.23120000      -0.08410000       1.27060000
C       -1.24620000      -0.67660000       0.04660000
C       -2.15240000      -0.67710000      -1.21980000
C       -1.29310000      -1.78920000      -1.86760000
C       -1.55900000      -2.14250000      -0.38460000
O       -2.97030000      -1.73520000      -0.57980000
H        1.08400000       1.89070000       0.17310000
H       -0.36610000       1.83620000      -0.84850000
H       -0.52390000       1.83230000       0.91380000
H        0.73310000      -0.39200000      -0.78490000
H        0.38280000      -0.24380000       2.23180000
H        0.89470000      -1.68360000       1.32730000
H        2.68290000      -0.34770000       2.07720000
H       -1.82530000      -0.40000000       0.93430000
H       -2.68590000       0.14940000      -1.69070000
H       -1.82660000      -2.41420000      -2.58450000
H       -0.27520000      -1.55810000      -2.18580000
H       -1.38040000      -3.07850000       0.14640000
