15
Properties=species:S:1:pos:R:3 gdb_25588=T pbc="F F F"
O        0.32030000       0.18940000      -0.44770000
C        0.41170000       1.37680000      -0.40280000
O        0.73910000       2.03750000       0.73060000
C        0.86550000       3.45720000       0.63280000
C        2.25760000       3.83950000       0.24530000
C        3.42130000       3.11860000       0.16040000
N        4.46680000       3.92440000      -0.23260000
C        3.94920000       5.11850000      -0.38050000
N        2.61040000       5.12760000      -0.10510000
H        0.22820000       2.05650000      -1.25750000
H        0.12930000       3.85510000      -0.08240000
H        0.59270000       3.83870000       1.62290000
H        3.55950000       2.06820000       0.36240000
H        4.47770000       6.01030000      -0.68280000
H        1.99810000       5.92520000      -0.15350000
