21
Properties=species:S:1:pos:R:3 gdb_114680=T pbc="F F F"
O       -0.11780000       1.49330000       0.02590000
C        0.02890000       0.07860000       0.07590000
C       -1.35730000      -0.53430000      -0.03910000
C       -2.07090000      -0.27690000      -1.40410000
C       -2.47920000      -1.71760000      -1.86590000
C       -2.81000000      -2.36820000      -0.50090000
C       -1.39910000      -2.10090000       0.07580000
C       -0.54140000      -2.66930000      -1.04670000
C       -1.18340000      -2.44280000      -2.19750000
H        0.75990000       1.88570000       0.03100000
H        0.66590000      -0.28160000      -0.74590000
H        0.49900000      -0.23490000       1.02340000
H       -1.96120000      -0.11650000       0.77410000
H       -2.95280000       0.35680000      -1.27640000
H       -1.41620000       0.21810000      -2.12550000
H       -3.25350000      -1.74230000      -2.63350000
H       -3.60840000      -1.85520000       0.04600000
H       -3.03950000      -3.43370000      -0.58080000
H       -1.19050000      -2.47610000       1.07900000
H        0.45050000      -3.08480000      -0.91830000
H       -0.82090000      -2.62840000      -3.20130000
