16
Properties=species:S:1:pos:R:3 gdb_32514=T pbc="F F F"
C       -0.00770000       1.40480000      -0.02660000
N        0.01910000      -0.03830000       0.13370000
C       -1.18450000      -0.71970000       0.04330000
C       -2.44860000      -0.20450000       0.02860000
O       -3.37440000      -1.22710000      -0.00050000
C       -2.70030000      -2.37840000      -0.01780000
C       -1.34690000      -2.16110000       0.01240000
C       -0.32110000      -3.19630000       0.03730000
O       -0.53920000      -4.38850000      -0.01220000
H        1.01140000       1.79270000       0.03090000
H       -0.45770000       1.72990000      -0.97830000
H       -0.58430000       1.85270000       0.79030000
H        0.77650000      -0.48520000      -0.36130000
H       -2.85420000       0.79050000       0.04690000
H       -3.27780000      -3.28760000      -0.04530000
H        0.72360000      -2.81850000       0.11650000
