12
Properties=species:S:1:pos:R:3 gdb_125567=T pbc="F F F"
C       -0.01680000       1.50930000       0.04090000
C       -0.01260000       0.02640000       0.00230000
N       -0.04810000      -0.74810000      -1.05440000
N       -0.02900000      -2.10690000      -0.69060000
C        0.01800000      -2.07620000       0.60290000
O        0.05950000      -2.91360000       1.64770000
N        0.09780000      -2.05900000       2.80950000
N        0.08010000      -0.85660000       2.45890000
N        0.03100000      -0.81070000       1.10840000
H        0.88690000       1.89950000       0.52030000
H       -0.06020000       1.87740000      -0.98480000
H       -0.88130000       1.89240000       0.59270000
