19
Properties=species:S:1:pos:R:3 gdb_72473=T pbc="F F F"
C       -0.05800000       1.48470000       0.03040000
C        0.05980000      -0.02630000      -0.01710000
C        0.70850000      -0.60010000      -1.29730000
O        0.11580000      -1.89210000      -1.40760000
C       -0.97040000      -1.93620000      -0.47870000
C       -0.54810000      -2.70780000       0.77930000
C        0.41920000      -1.87190000       1.57950000
C        0.71870000      -0.62750000       1.21180000
O       -1.25780000      -0.59790000      -0.15390000
H        0.93570000       1.94360000       0.04910000
H       -0.59810000       1.85200000      -0.84590000
H       -0.59650000       1.79850000       0.92870000
H        0.45780000       0.01410000      -2.17340000
H        1.79520000      -0.70340000      -1.22330000
H       -1.84610000      -2.37360000      -0.96810000
H       -1.43070000      -2.96640000       1.38070000
H       -0.08610000      -3.65400000       0.47350000
H        0.86220000      -2.31440000       2.46770000
H        1.43190000      -0.01990000       1.76100000
