17
Properties=species:S:1:pos:R:3 gdb_62769=T pbc="F F F"
C       -0.08030000       1.57180000       0.04110000
C        0.01950000       0.06800000       0.03890000
O       -1.12840000      -0.60840000      -0.40460000
C        1.31820000      -0.68910000      -0.24920000
N        2.58420000      -0.05020000      -0.05220000
C        2.71610000       0.44660000       1.24360000
O        3.56440000       1.20950000       1.64510000
N        1.67100000      -0.10580000       1.97890000
C        0.69810000      -0.73030000       1.13670000
H        0.81120000       2.04940000       0.45260000
H       -0.21640000       1.94960000      -0.97970000
H       -0.94460000       1.88740000       0.63400000
H       -1.21830000      -0.45570000      -1.35260000
H        1.28320000      -1.55150000      -0.90660000
H        3.06710000       0.44390000      -0.78460000
H        1.43910000       0.32710000       2.85760000
H        0.19570000      -1.61560000       1.50940000
