21
Properties=species:S:1:pos:R:3 gdb_113169=T pbc="F F F"
C        0.00940000       1.48970000      -0.07570000
C       -0.01970000       0.01030000       0.32770000
C       -1.41100000      -0.56950000       0.20280000
N       -1.86970000      -0.97630000      -1.12450000
C       -1.70780000      -2.01510000      -0.09080000
C       -0.61700000      -3.04090000      -0.32380000
C       -3.01900000      -2.47860000       0.51020000
N       -3.00950000      -3.69060000       1.13000000
O       -4.03050000      -1.79870000       0.43120000
H        1.01730000       1.90520000       0.01690000
H       -0.31580000       1.60880000      -1.11360000
H       -0.65780000       2.08660000       0.55590000
H        0.67670000      -0.55160000      -0.30130000
H        0.32290000      -0.10140000       1.36460000
H       -2.15880000      -0.08630000       0.83110000
H       -2.86930000      -0.78410000      -1.19740000
H        0.18750000      -2.60820000      -0.91900000
H       -0.18100000      -3.39900000       0.61710000
H       -1.00340000      -3.90430000      -0.87610000
H       -2.17000000      -4.22400000       1.26400000
H       -3.85540000      -3.99160000       1.58500000
