23
Properties=species:S:1:pos:R:3 gdb_101720=T pbc="F F F"
C        0.06650000       1.42310000       0.85410000
C       -0.11440000       0.05490000       0.19270000
C       -1.56910000      -0.40910000       0.09840000
C       -1.68420000      -1.76350000      -0.60260000
O       -2.07410000      -0.47520000       1.44520000
C       -3.46800000      -0.50970000       1.54290000
C       -4.03150000      -0.04240000       2.86130000
C       -4.16380000       0.82780000       1.63020000
O       -3.40670000       1.99260000       1.50390000
H        1.11400000       1.73760000       0.82640000
H       -0.52310000       2.19390000       0.34420000
H       -0.23870000       1.39230000       1.90430000
H        0.29550000       0.07580000      -0.82400000
H        0.45490000      -0.70340000       0.74460000
H       -2.15360000       0.34190000      -0.45440000
H       -2.72390000      -2.08900000      -0.69540000
H       -1.26740000      -1.70340000      -1.61300000
H       -1.13340000      -2.52760000      -0.04500000
H       -3.95300000      -1.34150000       1.03580000
H       -4.90410000      -0.54680000       3.26200000
H       -3.30610000       0.27720000       3.60250000
H       -5.14230000       0.95120000       1.17800000
H       -2.48720000       1.74380000       1.66110000
