22
Properties=species:S:1:pos:R:3 gdb_93963=T pbc="F F F"
O       -0.56850000       1.07670000       0.93360000
C        0.14910000       0.10600000       0.17050000
C        0.94360000      -0.86170000       1.06990000
C       -0.07500000      -1.94340000       1.51940000
C       -1.35440000      -1.71250000       0.66990000
C       -0.89550000      -0.79790000      -0.48000000
N       -1.90620000      -2.97120000       0.17670000
C       -2.84020000      -3.65800000       1.06480000
C       -3.32730000      -2.96630000      -0.15920000
H        0.07050000       1.57620000       1.45130000
H        0.79200000       0.60550000      -0.56860000
H        1.75570000      -1.31190000       0.48880000
H        1.41110000      -0.33490000       1.90870000
H        0.30590000      -2.94890000       1.32230000
H       -0.29370000      -1.88270000       2.58820000
H       -2.09800000      -1.16700000       1.27390000
H       -1.70840000      -0.22510000      -0.93280000
H       -0.42630000      -1.41020000      -1.25800000
H       -2.75850000      -4.74080000       1.09370000
H       -3.07110000      -3.19230000       2.02180000
H       -3.88260000      -2.04030000      -0.01800000
H       -3.60730000      -3.53450000      -1.04170000
