19
Properties=species:S:1:pos:R:3 gdb_59918=T pbc="F F F"
C        0.39530000       1.27150000       0.37840000
C       -0.02100000      -0.19230000       0.25940000
O       -0.03750000      -0.82370000       1.54760000
C       -1.36860000      -0.34900000      -0.46650000
C       -1.78180000      -1.76860000      -0.85520000
O       -2.34270000      -2.00840000      -1.90570000
N       -1.49730000      -2.73880000       0.08350000
C       -1.82610000      -4.07390000      -0.07960000
N       -1.53350000      -4.92230000       0.82060000
H        1.33750000       1.35150000       0.92660000
H        0.52570000       1.72500000      -0.60850000
H       -0.36700000       1.85170000       0.91360000
H        0.74950000      -0.74130000      -0.29390000
H       -0.59570000      -0.29530000       2.13050000
H       -2.16210000       0.07440000       0.16640000
H       -1.36880000       0.22650000      -1.39530000
H       -0.99770000      -2.46370000       0.92450000
H       -2.33650000      -4.26010000      -1.02670000
H       -1.84660000      -5.85010000       0.53980000
