20
Properties=species:S:1:pos:R:3 gdb_128200=T pbc="F F F"
C        0.07890000       1.41940000      -0.00170000
N        0.03730000      -0.03280000       0.07830000
C       -1.21820000      -0.62790000       0.02610000
C       -2.49610000      -0.09530000       0.02320000
C       -3.35370000      -1.22310000       0.03090000
C       -4.85020000      -1.24440000       0.03310000
N       -2.66790000      -2.36020000       0.03190000
N       -1.35700000      -1.98040000       0.04300000
C       -0.30940000      -2.97070000       0.05330000
H        1.11920000       1.74850000       0.05160000
H       -0.37330000       1.82340000      -0.92060000
H       -0.45550000       1.84430000       0.85320000
H        0.71100000      -0.47360000      -0.53410000
H       -2.76970000       0.94670000       0.01200000
H       -5.26130000      -0.73270000      -0.84450000
H       -5.20590000      -2.27700000       0.02730000
H       -5.25760000      -0.74380000       0.91880000
H        0.14900000      -3.10050000      -0.93630000
H        0.46910000      -2.68760000       0.76890000
H       -0.75500000      -3.91790000       0.35630000
