21
Properties=species:S:1:pos:R:3 gdb_96303=T pbc="F F F"
O        0.01260000       1.43000000      -0.00770000
C        0.01000000       0.00350000      -0.01410000
C       -1.43790000      -0.41850000       0.26180000
C       -1.59360000      -1.82290000       0.85990000
C       -1.19990000      -2.99320000      -0.05060000
C        0.27240000      -2.98720000      -0.52720000
C        0.49440000      -1.99990000      -1.66200000
O        0.60740000      -2.38180000      -2.80470000
C        0.56350000      -0.50330000      -1.35300000
H        0.89340000       1.73120000      -0.25370000
H        0.64180000      -0.36760000       0.81070000
H       -1.84590000       0.31320000       0.96650000
H       -2.02710000      -0.32410000      -0.66010000
H       -1.00450000      -1.87970000       1.78580000
H       -2.63950000      -1.95790000       1.15910000
H       -1.37450000      -3.92930000       0.49120000
H       -1.85560000      -3.02370000      -0.93010000
H        0.93140000      -2.75690000       0.31980000
H        0.54090000      -3.97270000      -0.91510000
H        0.05580000       0.02100000      -2.16960000
H        1.62700000      -0.23070000      -1.43210000
