21
Properties=species:S:1:pos:R:3 gdb_122293=T pbc="F F F"
O       -0.10120000       1.43190000       0.08960000
C       -0.02230000       0.01520000       0.11370000
C       -1.43530000      -0.53490000      -0.02240000
C       -1.47140000      -2.06710000      -0.03840000
C       -2.86550000      -2.61910000      -0.09230000
C       -4.03210000      -2.32350000      -1.08000000
C       -4.56940000      -3.14640000       0.11070000
C       -3.35210000      -4.09120000       0.01010000
O       -3.79450000      -2.28360000       1.02960000
H        0.78620000       1.78480000       0.20130000
H        0.60660000      -0.36290000      -0.71030000
H        0.42700000      -0.34450000       1.05420000
H       -2.04630000      -0.16230000       0.80600000
H       -1.87610000      -0.13730000      -0.94390000
H       -0.91400000      -2.45690000      -0.90060000
H       -0.98230000      -2.46760000       0.85920000
H       -4.36460000      -1.28550000      -1.11200000
H       -4.00250000      -2.79610000      -2.06560000
H       -5.59920000      -3.37110000       0.38680000
H       -3.26000000      -4.72750000      -0.87440000
H       -3.08370000      -4.60200000       0.93610000
