18
Properties=species:S:1:pos:R:3 gdb_43369=T pbc="F F F"
O        0.11060000      -0.01350000      -0.06910000
C       -0.00430000       1.19700000      -0.01610000
C       -1.19560000       2.02470000       0.08950000
C       -0.79680000       3.32320000       0.07550000
N        0.55080000       3.47890000      -0.10850000
C        1.19560000       2.17890000      -0.06150000
C        2.25530000       1.88660000       1.04620000
C        3.07030000       1.09020000      -0.00670000
C        2.26420000       1.80040000      -1.12610000
H       -2.20840000       1.65890000       0.14600000
H       -1.41910000       4.20600000       0.16450000
H        1.02480000       4.29580000       0.24340000
H        2.76420000       2.80660000       1.35290000
H        1.90330000       1.35760000       1.93410000
H        4.15330000       1.22520000      -0.00400000
H        2.83100000       0.02740000       0.03380000
H        1.91450000       1.19330000      -1.96310000
H        2.76940000       2.69250000      -1.50720000
