22
Properties=species:S:1:pos:R:3 gdb_101144=T pbc="F F F"
C        0.03770000       1.59770000      -0.05670000
C        0.04300000       0.06760000      -0.11790000
C       -1.34800000      -0.56600000       0.04800000
C       -2.31990000      -0.21790000      -1.09830000
C       -1.25350000      -2.05920000       0.19280000
N       -0.22800000      -2.78570000       0.00860000
C       -0.63790000      -4.17410000       0.26020000
C       -2.14450000      -4.08050000       0.61680000
O       -2.42410000      -2.66610000       0.55470000
H        1.05840000       1.98790000      -0.11530000
H       -0.52900000       2.04390000      -0.87990000
H       -0.40010000       1.95810000       0.88150000
H        0.47570000      -0.27190000      -1.06570000
H        0.69860000      -0.32890000       0.66360000
H       -1.79630000      -0.19830000       0.98240000
H       -2.50160000       0.85870000      -1.14100000
H       -1.90540000      -0.53210000      -2.06240000
H       -3.27980000      -0.72010000      -0.95820000
H       -0.45440000      -4.78660000      -0.62900000
H       -0.03970000      -4.59940000       1.07340000
H       -2.79570000      -4.59330000      -0.09730000
H       -2.38020000      -4.43380000       1.62470000
