20
Properties=species:S:1:pos:R:3 gdb_74378=T pbc="F F F"
C        0.01560000       1.53510000       0.06100000
C       -0.01270000       0.03420000       0.01300000
C       -0.07700000      -0.62440000      -1.15040000
N       -0.05240000      -2.02370000      -1.25260000
C        0.28450000      -2.79070000      -0.05830000
C       -0.39460000      -2.17670000       1.16730000
C        0.02320000      -0.70800000       1.32900000
C       -0.26090000      -2.63620000      -2.46170000
O       -0.49550000      -2.06580000      -3.50490000
H        0.92040000       1.90080000       0.56520000
H       -0.00930000       1.97220000      -0.94080000
H       -0.83680000       1.93290000       0.62750000
H       -0.14900000      -0.13100000      -2.11140000
H       -0.02960000      -3.82690000      -0.21210000
H        1.37440000      -2.78980000       0.08620000
H       -1.48100000      -2.24000000       1.03850000
H       -0.13690000      -2.75690000       2.05850000
H        1.03020000      -0.64350000       1.76770000
H       -0.63940000      -0.21080000       2.04920000
H       -0.18910000      -3.73780000      -2.37620000
