19
Properties=species:S:1:pos:R:3 gdb_89567=T pbc="F F F"
C        0.09620000       1.54130000       0.04900000
N       -0.01630000       0.10220000       0.08970000
C       -1.30100000      -0.49800000       0.49270000
C       -0.52750000      -1.56070000       1.30550000
C        0.70010000      -0.63590000       1.14580000
C       -1.01260000      -2.03660000       2.69130000
N       -1.08540000      -3.50400000       2.60480000
C       -0.72000000      -3.78580000       1.42550000
O       -0.37190000      -2.79710000       0.56760000
H        1.12600000       1.82700000      -0.18950000
H       -0.55200000       1.94260000      -0.73710000
H       -0.18210000       2.02850000       1.00440000
H       -1.90850000       0.14750000       1.15020000
H       -1.92290000      -0.86690000      -0.32940000
H        1.63480000      -1.11190000       0.83160000
H        0.87980000      -0.04450000       2.06020000
H       -0.32410000      -1.74260000       3.49180000
H       -1.99690000      -1.62730000       2.94590000
H       -0.65220000      -4.78390000       1.00690000
