16
Properties=species:S:1:pos:R:3 gdb_44685=T pbc="F F F"
O        0.04820000      -0.01160000      -0.11170000
C        0.00690000       1.18300000      -0.01700000
N       -1.02490000       2.08010000       0.11930000
C       -0.19200000       3.29540000       0.09050000
C       -0.18810000       4.19550000       1.28650000
C        0.92900000       4.36550000       1.98950000
C        2.16740000       3.55780000       1.70300000
O        1.87060000       2.29520000       1.12770000
C        1.04630000       2.34640000      -0.00660000
H       -2.02590000       1.94750000       0.10340000
H       -0.35260000       3.88170000      -0.82390000
H       -1.09460000       4.74850000       1.51770000
H        0.97900000       5.07990000       2.80630000
H        2.86490000       4.12890000       1.06440000
H        2.69900000       3.33390000       2.63310000
H        1.62920000       2.45190000      -0.93140000
