19
Properties=species:S:1:pos:R:3 gdb_39773=T pbc="F F F"
C        0.06300000       1.39600000      -0.14090000
C        1.32390000       0.64590000       0.08670000
C        1.81780000       0.36880000       1.51400000
C        0.55910000       0.61810000       2.39450000
C       -0.02980000      -0.51460000       1.50330000
N        0.00210000      -0.06010000       0.07520000
C        1.38840000      -1.12470000       1.59710000
C        1.99010000      -2.36840000       1.10580000
N        1.79520000      -2.12090000       2.56570000
H       -0.32380000       2.08610000       0.59970000
H       -0.17840000       1.67370000      -1.16330000
H        1.99890000       0.44070000      -0.73970000
H        2.81370000       0.71340000       1.79330000
H        0.71070000       0.26320000       3.41430000
H        0.09780000       1.60490000       2.41560000
H       -0.93140000      -1.06660000       1.76110000
H        1.36760000      -3.15690000       0.69300000
H        3.00160000      -2.33340000       0.70810000
H        2.68300000      -1.86640000       2.99380000
