22
Properties=species:S:1:pos:R:3 gdb_9907=T pbc="F F F"
C        0.04680000       1.56940000       0.32470000
C       -0.01740000       0.07620000       0.05960000
C       -1.35720000      -0.44910000      -0.43790000
C       -1.77620000       0.09190000      -1.81110000
C       -3.08370000      -0.51160000      -2.30590000
O       -3.38450000       0.06460000      -3.56870000
C        1.23220000      -0.59950000      -0.45530000
C        0.78360000      -0.82300000       0.97100000
H        1.02690000       1.85570000       0.71900000
H       -0.12310000       2.15290000      -0.58650000
H       -0.70850000       1.87280000       1.06000000
H       -1.31020000      -1.54520000      -0.48500000
H       -2.13450000      -0.21000000       0.30240000
H       -1.89570000       1.18060000      -1.77860000
H       -0.99290000      -0.11540000      -2.54990000
H       -2.98310000      -1.60720000      -2.38210000
H       -3.88590000      -0.31110000      -1.57600000
H       -4.20930000      -0.31610000      -3.88380000
H        1.12200000      -1.41960000      -1.15770000
H        2.11420000       0.00930000      -0.62470000
H        1.36140000      -0.36280000       1.76600000
H        0.37220000      -1.79330000       1.22990000
