18
Properties=species:S:1:pos:R:3 gdb_107335=T pbc="F F F"
O       -0.02270000       1.29500000       0.47050000
C        0.02240000      -0.00210000      -0.10670000
C       -1.35290000      -0.59970000      -0.18720000
N       -2.05040000      -1.00000000       1.05890000
C       -1.75530000      -2.01120000      -0.00700000
C       -2.94980000      -2.23050000      -0.88390000
C       -3.30170000      -1.09530000      -1.48990000
C       -2.35960000       0.04910000      -1.15060000
O       -2.98500000       1.18190000      -0.55370000
H       -0.82860000       1.72420000       0.15340000
H        0.47150000       0.02590000      -1.11350000
H        0.67920000      -0.61160000       0.52640000
H       -1.35090000      -1.07160000       1.79790000
H       -1.04860000      -2.80440000       0.21090000
H       -3.46660000      -3.18020000      -0.95370000
H       -4.16870000      -0.94860000      -2.12310000
H       -1.85960000       0.43740000      -2.04670000
H       -3.29830000       0.86190000       0.30570000
