23
Properties=species:S:1:pos:R:3 gdb_95369=T pbc="F F F"
C       -0.31790000       1.54480000      -0.03820000
C        0.21850000       0.11650000      -0.13140000
C        1.32800000      -0.07520000      -1.18580000
C        1.96220000      -1.41730000      -0.79960000
C        2.01080000      -1.37540000       0.73490000
O        3.19500000      -0.71070000       1.19550000
C        2.87510000       0.55830000       1.74890000
C        1.42360000       0.44890000       2.21710000
C        0.79510000      -0.50740000       1.18480000
H        0.47680000       2.26560000       0.18300000
H       -0.77080000       1.84530000      -0.98910000
H       -1.08490000       1.64250000       0.73770000
H       -0.61880000      -0.52850000      -0.43080000
H        0.94020000      -0.05530000      -2.20890000
H        2.07060000       0.72860000      -1.10710000
H        1.31660000      -2.24500000      -1.12080000
H        2.95600000      -1.58430000      -1.22210000
H        2.01610000      -2.37930000       1.17410000
H        3.58140000       0.76290000       2.56040000
H        2.99030000       1.35470000       0.99600000
H        1.38900000      -0.01390000       3.20880000
H        0.92140000       1.41610000       2.28660000
H        0.02490000      -1.11600000       1.66430000
