15
Properties=species:S:1:pos:R:3 gdb_3600=T pbc="F F F"
C        0.44740000       1.52100000      -0.12130000
C        0.07950000       0.08270000       0.13250000
O        1.13990000      -0.88790000       0.14590000
C        0.41320000      -0.67890000       1.35150000
C        1.16440000      -0.16070000       2.54100000
C        2.58830000      -0.47560000       2.73290000
O        2.16340000       0.83610000       2.35580000
H        1.34780000       1.79610000       0.42590000
H        0.61570000       1.67750000      -1.19220000
H       -0.37400000       2.17840000       0.18460000
H       -0.80090000      -0.26550000      -0.41300000
H       -0.25610000      -1.50060000       1.62370000
H        0.54270000      -0.01750000       3.42670000
H        2.99420000      -0.56350000       3.73900000
H        3.10520000      -1.03020000       1.95330000
