21
Properties=species:S:1:pos:R:3 gdb_83367=T pbc="F F F"
C       -0.12040000       1.53120000       0.00250000
C        0.03400000       0.01460000      -0.01880000
C        1.09910000      -0.59060000      -0.95310000
C        2.39560000      -0.07400000      -0.31780000
O        2.08860000      -0.09410000       1.09000000
C        0.74450000      -0.61640000       1.20530000
C        0.22780000      -0.35690000       2.59950000
C        0.80730000      -2.08650000       0.75340000
O        1.01450000      -1.99400000      -0.67090000
H        0.79650000       2.02600000       0.33210000
H       -0.38120000       1.91450000      -0.98960000
H       -0.92130000       1.82820000       0.68710000
H       -0.92870000      -0.46910000      -0.21080000
H        0.99630000      -0.43910000      -2.02770000
H        3.23420000      -0.74370000      -0.53680000
H        2.65920000       0.94550000      -0.62750000
H        0.23230000       0.71430000       2.81740000
H       -0.79390000      -0.73270000       2.70880000
H        0.85950000      -0.85360000       3.34220000
H        1.64740000      -2.60670000       1.22740000
H       -0.11960000      -2.63860000       0.95680000
