19
Properties=species:S:1:pos:R:3 gdb_26413=T pbc="F F F"
C       -0.11910000       1.56400000       0.12320000
C        0.00760000       0.05150000      -0.00130000
C        0.75650000      -0.57560000       1.17460000
O       -1.33460000      -0.45490000      -0.07920000
C       -1.50710000      -1.67850000      -0.62410000
C       -0.61230000      -2.56020000      -1.16330000
O       -1.27880000      -3.66910000      -1.61540000
C       -2.59280000      -3.47870000      -1.35560000
C       -2.80250000      -2.28330000      -0.74890000
H        0.87050000       2.02760000       0.17090000
H       -0.65820000       1.97720000      -0.73300000
H       -0.66730000       1.82450000       1.03410000
H        0.51980000      -0.19250000      -0.94340000
H        0.77400000      -1.66540000       1.09810000
H        1.79020000      -0.21670000       1.20170000
H        0.27160000      -0.30500000       2.11770000
H        0.45460000      -2.56870000      -1.29280000
H       -3.25160000      -4.27560000      -1.65940000
H       -3.74030000      -1.86060000      -0.42680000
