25
Properties=species:S:1:pos:R:3 gdb_118077=T pbc="F F F"
C       -0.06690000       1.36090000       0.08470000
O       -0.07720000      -0.04240000       0.00520000
C        0.67380000      -0.53650000      -1.08410000
C        0.59100000      -2.06520000      -1.08600000
C       -0.86960000      -2.53230000      -1.13690000
C        1.41130000      -2.68130000      -2.23560000
C        2.87780000      -2.23740000      -2.26730000
O        1.32560000      -4.09450000      -2.06920000
C        1.51680000      -4.84370000      -3.24450000
H        0.95360000       1.75750000       0.21070000
H       -0.50370000       1.82600000      -0.81390000
H       -0.66480000       1.64520000       0.95420000
H        0.27690000      -0.13230000      -2.03420000
H        1.71680000      -0.19450000      -0.99720000
H        1.04030000      -2.41950000      -0.14840000
H       -1.35250000      -2.19400000      -2.06270000
H       -0.92270000      -3.62150000      -1.10450000
H       -1.43100000      -2.11860000      -0.29750000
H        0.93180000      -2.40710000      -3.19240000
H        3.34750000      -2.39600000      -1.29130000
H        3.43870000      -2.81060000      -3.01090000
H        2.97440000      -1.18120000      -2.53400000
H        0.79280000      -4.56590000      -4.02680000
H        2.52900000      -4.73500000      -3.66200000
H        1.36550000      -5.89450000      -2.98380000
