14
Properties=species:S:1:pos:R:3 gdb_8826=T pbc="F F F"
C        0.00400000       1.42980000       0.06210000
N       -0.10380000      -0.01970000       0.00450000
C       -1.28330000      -0.66450000       0.00810000
O       -2.38220000      -0.14230000       0.09380000
C       -1.22860000      -2.22320000      -0.05240000
O       -2.51910000      -2.71570000      -0.22100000
C       -0.32010000      -2.67200000      -1.12440000
N        0.44000000      -2.99090000      -1.93460000
H        0.37590000       1.83490000      -0.88450000
H       -0.99100000       1.83070000       0.25430000
H        0.67870000       1.73250000       0.86820000
H        0.73040000      -0.55850000      -0.17230000
H       -0.79580000      -2.57090000       0.90070000
H       -3.08240000      -1.91930000      -0.17910000
