18
Properties=species:S:1:pos:R:3 gdb_90592=T pbc="F F F"
C       -0.47140000       1.56030000       0.18600000
C       -0.06370000       0.10580000      -0.00580000
C        0.61810000      -0.46910000      -1.28360000
C        1.75920000       0.26720000      -2.04920000
O        1.75270000       1.66300000      -1.86920000
C        2.78120000      -0.54480000      -1.18840000
N        1.65110000      -1.15230000      -0.41550000
C        1.21370000      -0.38880000       0.70730000
O        1.76280000      -0.15050000       1.74320000
H        0.35790000       2.23580000      -0.01840000
H       -1.30100000       1.82210000      -0.47790000
H       -0.80270000       1.70940000       1.21800000
H       -0.90780000      -0.54990000       0.24120000
H        0.00130000      -1.11720000      -1.90940000
H        1.78300000       0.00700000      -3.11590000
H        2.54420000       2.02650000      -2.27980000
H        3.35480000      -1.29550000      -1.73790000
H        3.45170000       0.05510000      -0.56670000
