21
Properties=species:S:1:pos:R:3 gdb_122048=T pbc="F F F"
C        0.25080000       1.50640000      -0.17360000
C        0.08080000      -0.01330000      -0.10080000
C       -1.38630000      -0.45270000      -0.05250000
C       -1.55740000      -1.97500000       0.00760000
C       -3.01860000      -2.41590000       0.06930000
C       -3.22060000      -3.90710000      -0.22760000
O       -2.33690000      -4.65790000      -0.54040000
C       -3.69670000      -2.12940000       1.40620000
O       -4.88700000      -2.17630000       1.57590000
H        1.30760000       1.78810000      -0.20550000
H       -0.23020000       1.91640000      -1.06860000
H       -0.19870000       1.99770000       0.69660000
H        0.56770000      -0.48090000      -0.96650000
H        0.60260000      -0.40000000       0.78450000
H       -1.87450000       0.01550000       0.81440000
H       -1.91250000      -0.06450000      -0.93600000
H       -1.08600000      -2.44490000      -0.86120000
H       -1.02780000      -2.37740000       0.88150000
H       -3.63190000      -1.90060000      -0.68600000
H       -4.27510000      -4.24030000      -0.13120000
H       -2.99690000      -1.91320000       2.24470000
