15
Properties=species:S:1:pos:R:3 gdb_18811=T pbc="F F F"
N       -0.05680000       1.26810000       0.13640000
C       -0.03360000       0.01780000      -0.02520000
O        1.10700000      -0.75250000      -0.10970000
C        0.71490000      -2.06720000      -0.48320000
C       -0.28450000      -2.82920000       0.36420000
C       -1.11750000      -1.85120000       1.18740000
C       -1.21010000      -0.92210000      -0.07970000
C       -0.69850000      -2.11770000      -0.93450000
H        0.89310000       1.64200000       0.18160000
H        1.50660000      -2.60790000      -0.98380000
H       -0.15960000      -3.88890000       0.55430000
H       -2.09910000      -2.26870000       1.42030000
H       -0.67770000      -1.42270000       2.09330000
H       -2.16000000      -0.44180000      -0.29090000
H       -1.07300000      -2.48020000      -1.88190000
