19
Properties=species:S:1:pos:R:3 gdb_115616=T pbc="F F F"
C        0.02380000       1.59130000      -0.04740000
C        0.06510000       0.08590000      -0.04100000
O        1.36950000      -0.53190000      -0.06340000
C        0.57810000      -0.68540000       1.09220000
C        1.00260000      -0.27490000       2.49840000
O        0.53610000      -1.54280000       3.01780000
C        0.15940000      -2.02510000       1.69520000
C       -1.31000000      -2.41220000       1.68620000
O       -1.56410000      -3.40310000       2.66120000
H        0.75440000       2.00730000       0.65130000
H        0.24770000       1.97770000      -1.04680000
H       -0.97300000       1.94670000       0.23520000
H       -0.65320000      -0.40500000      -0.70010000
H        2.08440000      -0.14840000       2.62450000
H        0.47760000       0.57610000       2.94860000
H        0.78930000      -2.87130000       1.39290000
H       -1.92460000      -1.51240000       1.85270000
H       -1.58670000      -2.83540000       0.71410000
H       -1.20370000      -3.05970000       3.48810000
