19
Properties=species:S:1:pos:R:3 gdb_75229=T pbc="F F F"
C        0.02260000       1.50560000       0.08750000
C        0.01090000       0.01150000      -0.00080000
C        0.02080000      -0.74420000      -1.10460000
C       -0.04230000      -2.22570000      -0.81460000
C       -0.00890000      -2.29660000       0.70920000
C        1.20070000      -1.72660000       1.43170000
C        0.01160000      -0.84030000       1.23230000
C       -0.82300000      -3.30020000       1.41880000
O       -1.52960000      -4.12160000       0.88460000
H        0.90170000       1.86720000       0.63550000
H        0.02520000       1.96370000      -0.90490000
H       -0.85690000       1.87640000       0.62910000
H        0.07740000      -0.35370000      -2.11510000
H       -0.96410000      -2.68800000      -1.18780000
H        0.78730000      -2.77950000      -1.27210000
H        1.38850000      -2.10530000       2.43230000
H        2.08920000      -1.54090000       0.83750000
H       -0.57240000      -0.54510000       2.09890000
H       -0.74560000      -3.24550000       2.53070000
