25
Properties=species:S:1:pos:R:3 gdb_64193=T pbc="F F F"
C       -0.56370000       1.42460000       0.18810000
C       -0.02520000       0.01250000      -0.01870000
C       -1.10120000      -0.88610000      -0.63770000
C        1.32970000      -0.10290000      -0.78570000
C        1.81330000      -1.13920000       0.26010000
C        0.67140000      -0.67680000       1.20620000
C        1.13080000       0.12900000       2.45600000
C        0.90510000      -1.14710000       3.30880000
C        0.01090000      -1.69830000       2.16650000
H        0.19590000       2.09100000       0.60870000
H       -0.89160000       1.85580000      -0.76530000
H       -1.42740000       1.43150000       0.86440000
H       -1.42790000      -0.48530000      -1.60420000
H       -0.73510000      -1.90390000      -0.80770000
H       -1.98330000      -0.95440000       0.00870000
H        1.28060000      -0.42700000      -1.82930000
H        1.90330000       0.82760000      -0.74010000
H        1.67630000      -2.17030000      -0.08010000
H        2.83680000      -1.03540000       0.63150000
H        2.13410000       0.56500000       2.43580000
H        0.41640000       0.91440000       2.72080000
H        1.82350000      -1.72960000       3.42170000
H        0.45150000      -1.02190000       4.29480000
H       -1.04630000      -1.46970000       2.33920000
H        0.09810000      -2.75840000       1.91070000
