14
Properties=species:S:1:pos:R:3 gdb_129397=T pbc="F F F"
N        0.18450000       0.39450000       1.20700000
C       -0.05890000       0.11860000      -0.11990000
N        0.54710000       0.56790000      -1.15080000
C       -1.21780000      -0.79990000      -0.29540000
N       -1.75640000      -1.06160000      -1.45710000
O       -2.79250000      -1.96920000      -1.11950000
C       -2.73590000      -2.12850000       0.20510000
N       -3.66640000      -2.92230000       0.78790000
N       -1.78970000      -1.44050000       0.78310000
H        1.07680000       0.79340000       1.44760000
H       -0.24190000      -0.21600000       1.88720000
H        1.31350000       1.18830000      -0.88150000
H       -4.13370000      -3.58990000       0.19590000
H       -3.45920000      -3.22560000       1.72530000
