19
Properties=species:S:1:pos:R:3 gdb_82407=T pbc="F F F"
C        0.80120000       1.54620000       0.00540000
C        0.15630000       0.14760000       0.05090000
C        0.45980000      -0.72150000      -1.17040000
N        1.64740000      -0.39940000      -1.97790000
C        1.66600000      -1.58460000      -1.10260000
C        2.47410000      -1.43740000       0.16780000
O        1.63760000      -1.37780000       1.33700000
C        0.52960000      -0.58290000       1.33390000
N       -0.18430000      -0.45210000       2.37340000
H        1.89180000       1.49800000      -0.02240000
H        0.47790000       2.07940000      -0.89270000
H        0.49540000       2.11430000       0.88720000
H       -0.92450000       0.28660000       0.11980000
H       -0.40690000      -1.11720000      -1.69230000
H        1.49460000      -0.68130000      -2.94250000
H        1.63250000      -2.56970000      -1.55820000
H        3.12680000      -2.29540000       0.34120000
H        3.09410000      -0.53650000       0.10800000
H        0.22090000      -0.98600000       3.14570000
