22
Properties=species:S:1:pos:R:3 gdb_110319=T pbc="F F F"
C       -0.03280000       1.31410000      -0.26220000
C        0.41040000      -0.15140000      -0.34570000
C        0.87770000      -0.70570000       0.98660000
C        0.03450000      -1.17170000       2.17590000
N       -1.15920000      -1.94530000       1.86230000
C       -2.37070000      -1.32220000       1.37000000
C       -0.38390000      -2.89290000       1.02410000
C        0.90660000      -2.15090000       1.41120000
O        2.04430000      -2.79900000       1.86000000
H        0.77730000       1.95080000       0.11020000
H       -0.33170000       1.69500000      -1.24390000
H       -0.88200000       1.43090000       0.41870000
H       -0.40390000      -0.75880000      -0.75150000
H        1.23400000      -0.23870000      -1.06800000
H        1.76650000      -0.20170000       1.37120000
H        0.16650000      -0.74240000       3.16420000
H       -2.27280000      -0.79680000       0.40530000
H       -3.15020000      -2.08420000       1.25880000
H       -2.72360000      -0.59710000       2.11120000
H       -0.41780000      -3.91570000       1.41550000
H       -0.64230000      -2.90790000      -0.04380000
H        2.66840000      -2.85360000       1.12850000
