23
Properties=species:S:1:pos:R:3 gdb_36984=T pbc="F F F"
C       -0.11920000       1.40240000       0.11230000
O        0.04080000       0.02030000       0.39310000
C       -1.15870000      -0.68440000       0.40720000
C       -1.73770000      -1.18470000      -0.89290000
C       -1.07980000      -2.14010000       0.08520000
C        1.24700000       2.05180000       0.10900000
C        2.23530000       1.70910000      -1.04070000
C        2.65010000       3.20490000      -1.07940000
C        1.34780000       3.54730000      -0.30460000
H       -0.61010000       1.53700000      -0.86580000
H       -0.76940000       1.87280000       0.87020000
H       -1.85830000      -0.36330000       1.18110000
H       -2.81540000      -1.21370000      -1.01150000
H       -1.18480000      -0.95170000      -1.79610000
H       -0.10000000      -2.51960000      -0.18090000
H       -1.70020000      -2.83060000       0.64520000
H        1.72270000       1.88630000       1.08140000
H        3.00970000       0.96590000      -0.84020000
H        1.69730000       1.41280000      -1.94730000
H        3.54130000       3.39490000      -0.47440000
H        2.79330000       3.66880000      -2.05810000
H        0.53650000       3.82840000      -0.98490000
H        1.40400000       4.29340000       0.49180000
