17
Properties=species:S:1:pos:R:3 gdb_6025=T pbc="F F F"
C        0.04800000       1.56020000      -0.10450000
C        0.00220000       0.04180000       0.02120000
O        0.53410000      -0.39710000       1.27350000
C       -1.44680000      -0.53530000       0.02630000
C       -1.42560000      -2.07470000      -0.01630000
O       -2.12910000      -0.06870000       1.17870000
C       -2.17870000      -0.03040000      -1.15190000
N       -2.72040000       0.33580000      -2.10390000
H        1.07900000       1.91700000       0.00090000
H       -0.31630000       1.88320000      -1.08260000
H       -0.57040000       2.02380000       0.66850000
H        0.55640000      -0.42400000      -0.80620000
H        1.28110000       0.16480000       1.49930000
H       -0.83220000      -2.44490000       0.82220000
H       -2.44520000      -2.45560000       0.06700000
H       -0.98550000      -2.43870000      -0.94910000
H       -1.48500000      -0.16630000       1.89490000
