19
Properties=species:S:1:pos:R:3 gdb_44934=T pbc="F F F"
O       -0.01220000       0.01740000       0.11620000
C       -0.03140000       1.21800000       0.03890000
C       -1.28830000       2.10290000      -0.02970000
C       -0.71720000       3.52670000       0.16880000
C        0.62420000       3.43620000      -0.59660000
C        1.20100000       2.14110000       0.00180000
C        1.66870000       2.40860000       1.45410000
C        0.67110000       3.25040000       2.21280000
C       -0.41740000       3.76360000       1.63760000
H       -1.74370000       1.98520000      -1.02200000
H       -2.02540000       1.79100000       0.71350000
H       -1.38060000       4.30080000      -0.22280000
H        0.45470000       3.33360000      -1.67420000
H        1.26150000       4.30840000      -0.42910000
H        2.00360000       1.67600000      -0.57400000
H        1.83010000       1.45410000       1.97080000
H        2.64700000       2.90960000       1.43630000
H        0.87300000       3.42540000       3.26650000
H       -1.12950000       4.34240000       2.21920000
