18
Properties=species:S:1:pos:R:3 gdb_89196=T pbc="F F F"
C       -0.75500000       1.30590000       0.01000000
C       -0.01810000      -0.02350000       0.06110000
C        1.13220000      -0.29350000      -0.96390000
C        2.09800000      -0.68660000       0.20180000
N        2.72160000      -1.96820000       0.10190000
C        0.97990000      -0.26730000       1.21160000
O        1.75020000       0.93180000       1.54880000
C        2.81590000       0.55410000       0.75620000
O        3.87560000       1.08620000       0.66320000
H       -0.05680000       2.14310000       0.09440000
H       -1.30200000       1.40890000      -0.93290000
H       -1.47820000       1.38840000       0.82830000
H       -0.73020000      -0.85480000       0.03620000
H        0.93970000      -1.13800000      -1.62860000
H        1.45570000       0.56320000      -1.55930000
H        3.16160000      -2.07830000      -0.80630000
H        3.44840000      -2.08580000       0.80130000
H        0.69670000      -0.81420000       2.10970000
