23
Properties=species:S:1:pos:R:3 gdb_113554=T pbc="F F F"
C       -0.46610000       1.04600000      -0.23210000
O        0.43180000      -0.00110000       0.07450000
C        0.92010000      -0.64280000      -1.06270000
C        1.56310000      -1.97960000      -0.85900000
C        0.23700000      -1.88820000      -1.56980000
C       -1.11970000      -2.39890000      -1.07510000
C       -1.61120000      -2.37140000      -2.55170000
C       -0.13370000      -2.21710000      -3.02900000
C        0.17020000      -1.21190000      -4.13020000
H        0.02130000       1.83330000      -0.82780000
H       -1.34360000       0.68740000      -0.78930000
H       -0.79690000       1.47630000       0.71620000
H        1.36750000       0.03130000      -1.79630000
H        2.45840000      -2.20920000      -1.42920000
H        1.55250000      -2.37400000       0.15240000
H       -1.06380000      -3.41410000      -0.66920000
H       -1.64940000      -1.77040000      -0.35540000
H       -2.15980000      -3.24480000      -2.91160000
H       -2.20030000      -1.47600000      -2.77330000
H        0.27630000      -3.19750000      -3.30330000
H       -0.23640000      -0.22410000      -3.88640000
H        1.24860000      -1.09970000      -4.29210000
H       -0.27270000      -1.52970000      -5.08050000
