23
Properties=species:S:1:pos:R:3 gdb_113376=T pbc="F F F"
C        1.76620000      -1.18050000      -1.22090000
C        0.48000000      -0.74390000      -0.50390000
C        0.59630000      -0.60310000       1.00800000
C        1.76110000       0.25680000       1.48790000
O        1.80820000       0.44530000       2.89530000
C       -0.71390000      -0.53890000       1.77990000
C        0.15530000      -1.75120000       1.89770000
O       -0.34770000      -2.93360000       1.35570000
C        0.60330000      -3.97760000       1.31400000
H        2.15050000      -2.12420000      -0.82070000
H        1.57670000      -1.32580000      -2.28890000
H        2.56160000      -0.43400000      -1.13040000
H        0.14870000       0.21580000      -0.92390000
H       -0.31290000      -1.46700000      -0.71760000
H        2.70910000      -0.22690000       1.23020000
H        1.74100000       1.22610000       0.96210000
H        1.11770000       1.07090000       3.13280000
H       -0.81000000       0.10350000       2.64890000
H       -1.62470000      -0.64880000       1.20050000
H        0.70220000      -1.87820000       2.83190000
H        0.09810000      -4.85640000       0.90620000
H        1.46370000      -3.73190000       0.67570000
H        0.97930000      -4.21850000       2.31990000
