19
Properties=species:S:1:pos:R:3 gdb_14023=T pbc="F F F"
C        0.33200000       1.53070000       0.16260000
C       -0.21010000       0.13590000      -0.13520000
N        0.51060000      -0.46930000      -1.25310000
C        1.71860000      -1.23480000      -0.92690000
C        0.48060000      -1.90670000      -1.38250000
C       -0.38900000      -2.93690000      -0.65580000
O       -0.62030000      -3.63320000      -1.89800000
C        0.15120000      -2.67330000      -2.65800000
H        1.38350000       1.48520000       0.46400000
H        0.26210000       2.16630000      -0.72440000
H       -0.23310000       1.99910000       0.97410000
H       -0.15770000      -0.48700000       0.77570000
H       -1.26800000       0.19790000      -0.41730000
H        2.56330000      -1.10460000      -1.59890000
H        1.98450000      -1.34720000       0.12500000
H        0.11710000      -3.56990000       0.08380000
H       -1.31990000      -2.55050000      -0.21930000
H       -0.46300000      -2.11950000      -3.37920000
H        0.99390000      -3.14410000      -3.17940000
