21
Properties=species:S:1:pos:R:3 gdb_102509=T pbc="F F F"
C       -0.10110000       1.55520000       0.06420000
C        0.14290000       0.04230000       0.06450000
C        0.79110000      -0.48940000      -1.22840000
C        2.29840000      -0.14350000      -1.27850000
O        2.82090000      -0.02010000      -2.58370000
C        0.52300000      -2.02210000      -1.35870000
N       -0.85820000      -2.43550000      -1.61530000
C        1.37230000      -2.62090000      -2.40500000
N        2.06470000      -3.05340000      -3.22400000
H        0.82420000       2.12230000      -0.07340000
H       -0.78550000       1.84100000      -0.74150000
H       -0.54590000       1.87660000       1.01070000
H        0.77690000      -0.23410000       0.91870000
H       -0.81780000      -0.46000000       0.22980000
H        0.32750000      -0.00180000      -2.09610000
H        2.45240000       0.83150000      -0.80710000
H        2.86330000      -0.87510000      -0.67600000
H        2.90160000      -0.89930000      -2.97080000
H        0.82980000      -2.49540000      -0.41560000
H       -1.44420000      -2.19960000      -0.82230000
H       -1.22690000      -1.94080000      -2.42250000
