21
Properties=species:S:1:pos:R:3 gdb_99905=T pbc="F F F"
C       -0.11930000       1.37750000       0.10640000
N       -0.07130000      -0.05480000      -0.18770000
C        0.75440000      -0.47510000      -1.32760000
C        0.15900000       0.08530000      -2.63150000
C        2.15190000       0.03670000      -1.19340000
N        3.21980000       0.45210000      -1.03440000
C        0.83660000      -2.00510000      -1.28720000
C       -0.19960000      -2.90010000      -1.91120000
C        1.19950000      -2.85700000      -2.47400000
H        0.87020000       1.85280000       0.19500000
H       -0.68580000       1.90580000      -0.66570000
H       -0.65260000       1.51450000       1.05060000
H        0.24370000      -0.55320000       0.63780000
H        0.22340000       1.17490000      -2.64730000
H        0.69950000      -0.28470000      -3.50470000
H       -0.89310000      -0.19890000      -2.69990000
H        1.24290000      -2.35190000      -0.33970000
H       -0.51220000      -3.77450000      -1.35180000
H       -0.99040000      -2.44530000      -2.49530000
H        1.34120000      -2.37860000      -3.43620000
H        1.86000000      -3.69930000      -2.30260000
