18
Properties=species:S:1:pos:R:3 gdb_59078=T pbc="F F F"
C        0.22120000       1.43480000       0.25950000
C       -0.20370000      -0.00470000      -0.03810000
O       -1.57780000      -0.08580000      -0.40830000
C        0.56190000      -0.57300000      -1.21270000
C        1.93810000      -1.12450000      -1.05310000
O        2.47760000      -1.09090000       0.22570000
C        0.77750000      -2.08160000      -1.35460000
C        0.35610000      -2.97830000      -0.31930000
N        0.05300000      -3.71930000       0.51660000
H        1.27630000       1.47280000       0.54520000
H        0.06280000       2.07300000      -0.61560000
H       -0.36890000       1.84200000       1.08790000
H       -0.00750000      -0.62410000       0.84600000
H       -2.10510000       0.16350000       0.35700000
H        0.34810000      -0.06830000      -2.15050000
H        2.65050000      -0.97680000      -1.86420000
H        2.92330000      -1.92690000       0.40270000
H        0.72230000      -2.49830000      -2.35450000
