14
Properties=species:S:1:pos:R:3 gdb_31392=T pbc="F F F"
O        0.16280000       1.35880000      -0.19490000
C        0.04300000      -0.02330000      -0.05250000
C       -1.39450000      -0.45530000       0.02140000
N       -2.34390000       0.38150000      -0.04270000
C       -3.67120000      -0.08820000       0.03290000
N       -4.62960000       0.74030000      -0.02990000
N       -3.86870000      -1.49030000       0.17810000
C       -2.84450000      -2.22820000       0.23060000
O       -1.54280000      -1.80990000       0.16100000
H       -0.73980000       1.71350000      -0.21100000
H        0.51310000      -0.55710000      -0.89440000
H        0.54960000      -0.37960000       0.85930000
H       -5.50940000       0.22670000       0.04050000
H       -2.89620000      -3.30730000       0.34040000
