18
Properties=species:S:1:pos:R:3 gdb_86844=T pbc="F F F"
C       -0.04470000       1.42200000       0.00830000
N       -0.01390000      -0.01800000      -0.09510000
C       -1.20220000      -0.83410000       0.05350000
C       -0.71600000      -2.24590000      -0.37930000
C        0.79100000      -2.21350000      -0.03660000
C        1.15930000      -0.73100000      -0.10550000
O        2.27510000      -0.25680000      -0.14140000
C       -1.46790000      -3.33440000       0.22300000
C       -2.08720000      -4.22920000       0.73340000
H        0.98050000       1.78060000      -0.09850000
H       -0.66880000       1.85950000      -0.77970000
H       -0.43940000       1.74640000       0.98030000
H       -1.56450000      -0.84270000       1.09190000
H       -2.01710000      -0.47090000      -0.58160000
H       -0.81400000      -2.30670000      -1.46980000
H        0.97420000      -2.56870000       0.98310000
H        1.40990000      -2.80520000      -0.71180000
H       -2.63310000      -5.02420000       1.17800000
