18
Properties=species:S:1:pos:R:3 gdb_23048=T pbc="F F F"
O       -0.16880000       1.37480000       0.11820000
N       -0.05520000      -0.01540000       0.28240000
C       -1.14750000      -0.60000000       0.01840000
C       -2.53790000      -0.19720000      -0.42560000
C       -2.91750000      -1.71350000      -0.39380000
C       -1.47120000      -2.07470000       0.06270000
C       -0.60900000      -3.13200000      -0.66590000
O       -0.44740000      -3.90980000       0.53450000
C       -1.18560000      -2.94620000       1.30810000
H        0.71560000       1.68030000       0.34770000
H       -3.07100000       0.44250000       0.28370000
H       -2.57710000       0.28340000      -1.40740000
H       -3.69070000      -1.97350000       0.33300000
H       -3.19510000      -2.13320000      -1.36360000
H       -1.12590000      -3.69180000      -1.45640000
H        0.34770000      -2.75430000      -1.04640000
H       -0.56230000      -2.46100000       2.06890000
H       -2.07210000      -3.38680000       1.78290000
