16
Properties=species:S:1:pos:R:3 gdb_110438=T pbc="F F F"
O        0.06690000       1.35400000       0.28500000
C        0.10580000      -0.03920000       0.04600000
C       -1.29780000      -0.61390000      -0.06050000
C       -1.59290000      -2.11660000      -0.02660000
C       -2.76880000      -1.84710000       0.82940000
C       -1.56970000      -2.52450000       1.47860000
C       -1.34620000      -1.23770000       2.18790000
O       -0.84610000      -0.85420000       3.19750000
N       -2.16940000      -0.47940000       1.19840000
H       -0.41090000       1.48940000       1.11180000
H        0.62380000      -0.18050000      -0.90910000
H        0.68880000      -0.56910000       0.81440000
H       -1.83580000      -0.12730000      -0.87880000
H       -1.47000000      -2.87510000      -0.79090000
H       -3.81740000      -2.09940000       0.84210000
H       -1.43850000      -3.54970000       1.79590000
