14
Properties=species:S:1:pos:R:3 gdb_25846=T pbc="F F F"
N       -0.07540000       1.32280000       0.00880000
C        0.05440000      -0.02500000       0.00310000
O        1.11660000      -0.62220000      -0.00740000
C       -1.26090000      -0.76470000       0.01110000
C       -1.26350000      -2.16150000       0.00700000
N       -2.39650000      -2.86490000       0.01370000
C       -3.52780000      -2.15680000       0.02440000
C       -3.53100000      -0.76270000       0.02850000
N       -2.39810000      -0.06190000       0.02190000
H        0.75190000       1.89400000       0.00290000
H       -0.99400000       1.73450000       0.01620000
H       -0.32210000      -2.69950000      -0.00180000
H       -4.46100000      -2.71380000       0.03000000
H       -4.46300000      -0.20400000       0.03730000
