15
Properties=species:S:1:pos:R:3 gdb_49353=T pbc="F F F"
O        0.03510000      -0.04270000      -0.37270000
C        0.02720000       1.08410000       0.05650000
C        1.23830000       1.94860000       0.07440000
C        1.11140000       3.45670000      -0.15880000
C       -0.15560000       4.07310000      -0.42080000
C       -1.20060000       4.61740000      -0.65760000
C        1.46580000       2.93170000       1.22630000
C        0.54570000       3.03400000       2.32020000
C       -0.19870000       3.13280000       3.25870000
H       -0.89090000       1.54820000       0.46740000
H        2.12220000       1.47100000      -0.33280000
H        1.94530000       3.88910000      -0.70410000
H       -2.12780000       5.09310000      -0.86250000
H        2.50950000       3.05310000       1.50120000
H       -0.86250000       3.21820000       4.08320000
