16
Properties=species:S:1:pos:R:3 gdb_76784=T pbc="F F F"
O       -0.24160000       1.52550000      -0.18850000
C       -0.01020000       0.14870000       0.00440000
C       -1.32390000      -0.71140000       0.07920000
O       -2.45990000      -0.00210000      -0.33870000
C       -0.74380000      -1.63100000      -1.02160000
C       -0.74780000      -3.12360000      -1.05400000
N       -1.48560000      -2.35580000      -2.04990000
C        0.36990000      -0.64670000      -1.27020000
O        1.14730000      -0.41190000      -2.15090000
H        0.24910000       1.79530000      -0.97510000
H        0.66770000      -0.03080000       0.84800000
H       -1.51290000      -1.19280000       1.04460000
H       -2.17180000       0.91470000      -0.46690000
H        0.12330000      -3.64930000      -1.43490000
H       -1.28260000      -3.62580000      -0.25060000
H       -2.47730000      -2.29820000      -1.82200000
