17
Properties=species:S:1:pos:R:3 gdb_96919=T pbc="F F F"
C       -0.00440000       1.37850000      -0.04990000
N       -0.05100000      -0.06820000       0.04790000
C       -1.16400000      -0.63570000       0.00100000
C       -2.65480000      -0.27030000      -0.06880000
C       -2.88010000      -1.77940000      -0.00740000
C       -2.15460000      -2.49960000      -1.08070000
C       -1.90190000      -1.94110000      -2.37820000
C       -1.69480000      -1.49660000      -3.47600000
N       -1.39290000      -2.06770000       0.14890000
H        0.62870000       1.65830000      -0.89890000
H       -0.98520000       1.86060000      -0.17290000
H        0.47310000       1.78430000       0.84910000
H       -2.99810000       0.25350000       0.82680000
H       -3.01420000       0.25080000      -0.95910000
H       -3.60800000      -2.28240000       0.61880000
H       -2.27080000      -3.58030000      -1.07180000
H       -1.50360000      -1.10560000      -4.44480000
