18
Properties=species:S:1:pos:R:3 gdb_31654=T pbc="F F F"
C       -0.00280000       1.41300000       0.06610000
O        0.01690000      -0.00630000       0.00560000
C        0.62970000      -0.63200000       1.03260000
C        0.77850000      -1.98660000       1.16130000
N        1.45110000      -2.15150000       2.37570000
C        1.79850000      -3.40670000       3.00330000
C        1.67750000      -0.90780000       2.86820000
N        2.28160000      -0.70210000       4.11310000
N        1.19320000       0.03980000       2.08540000
H        1.01120000       1.82760000       0.07780000
H       -0.52880000       1.74230000      -0.83200000
H       -0.52930000       1.76870000       0.95830000
H        0.49660000      -2.81830000       0.54120000
H        2.72500000      -3.82880000       2.59520000
H        1.92460000      -3.24040000       4.07530000
H        0.99290000      -4.13030000       2.85310000
H        3.24450000      -1.02010000       4.14830000
H        2.25780000       0.28790000       4.32600000
