20
Properties=species:S:1:pos:R:3 gdb_22266=T pbc="F F F"
C        0.55570000       1.36320000       0.05740000
C       -0.00210000      -0.03500000       0.02180000
N       -0.49660000      -0.62140000       1.04760000
O       -0.43990000       0.18290000       2.19460000
C       -0.03380000      -0.79510000      -1.26640000
C       -1.03970000      -0.25450000      -2.27210000
C        1.28420000      -1.34130000      -1.80500000
C        0.23270000      -2.28250000      -1.26480000
O        0.50280000      -2.97560000      -0.09080000
H        0.96530000       1.64820000      -0.91250000
H       -0.22080000       2.07880000       0.34720000
H        1.34180000       1.43670000       0.81550000
H       -0.83710000      -0.38260000       2.86530000
H       -0.82800000       0.78900000      -2.53220000
H       -1.00920000      -0.83610000      -3.19840000
H       -2.05830000      -0.30410000      -1.87280000
H        1.46450000      -1.28810000      -2.87390000
H        2.16470000      -1.22840000      -1.18160000
H       -0.33320000      -2.86190000      -1.99470000
H        0.01130000      -2.52530000       0.61270000
