20
Properties=species:S:1:pos:R:3 gdb_75579=T pbc="F F F"
C        0.00460000       1.52750000       0.12640000
C       -0.01390000       0.02990000      -0.01750000
C       -1.13090000      -0.70590000       0.06620000
C       -1.18540000      -2.21600000       0.03130000
C       -0.77630000      -2.83650000      -1.32250000
C        0.44620000      -2.12220000      -1.92120000
N        1.43350000      -1.72610000      -0.92160000
C        1.34470000      -0.60400000      -0.13510000
O        2.31680000      -0.15050000       0.44810000
H        0.67200000       1.81260000       0.94480000
H        0.39590000       2.01140000      -0.77650000
H       -0.99650000       1.91970000       0.32190000
H       -2.07450000      -0.18310000       0.21090000
H       -0.50840000      -2.61090000       0.79730000
H       -2.18880000      -2.55840000       0.29990000
H       -0.56720000      -3.90120000      -1.16940000
H       -1.59840000      -2.77270000      -2.04500000
H        0.94800000      -2.76790000      -2.64670000
H        0.10890000      -1.23400000      -2.46670000
H        2.37420000      -2.08240000      -1.00330000
