23
Properties=species:S:1:pos:R:3 gdb_90479=T pbc="F F F"
C        0.29500000       2.04890000       3.25790000
C        0.13410000       0.64300000       2.68890000
C       -0.09060000       0.40830000       1.15370000
C        1.03610000      -0.63610000       1.16220000
C        2.34840000      -0.02670000       1.57030000
C        2.86660000       1.30980000       1.12960000
C        4.15380000       1.84790000       1.70750000
C        4.11120000       1.37430000       0.27600000
C        1.32530000      -0.32810000       2.64200000
H        1.10320000       2.60350000       2.77540000
H       -0.62940000       2.62560000       3.13680000
H        0.51990000       2.00790000       4.32970000
H       -0.68400000       0.14740000       3.22310000
H       -1.07340000      -0.01370000       0.93330000
H        0.06250000       1.27090000       0.49660000
H        0.98190000      -1.59950000       0.66850000
H        3.14100000      -0.77560000       1.59440000
H        2.11170000       2.05210000       0.89670000
H        4.23290000       2.91260000       1.89880000
H        4.67540000       1.22900000       2.43050000
H        4.60680000       0.43860000       0.03680000
H        4.15840000       2.11410000      -0.51560000
H        1.56580000      -1.02400000       3.43910000
