10
Properties=species:S:1:pos:R:3 gdb_130853=T pbc="F F F"
O       -0.00980000      -0.05000000      -0.00220000
C       -0.00050000       1.15360000       0.00840000
C        1.23170000       1.96120000       0.00180000
C        1.39080000       3.32590000       0.01240000
O        2.68070000       3.62680000       0.00030000
N        3.37250000       2.33450000      -0.01900000
N        2.51030000       1.44010000      -0.01670000
C        0.43180000       4.36640000       0.03230000
N       -0.37440000       5.19580000       0.04860000
H       -0.93040000       1.75790000       0.02410000
