14
Properties=species:S:1:pos:R:3 gdb_132779=T pbc="F F F"
N       -0.02640000       1.41270000       0.16000000
C        0.02930000       0.02710000       0.05720000
C       -1.16100000      -0.70570000       0.03750000
F       -2.32780000      -0.04060000       0.04910000
C       -1.15320000      -2.09210000      -0.00570000
F       -2.32340000      -2.73290000      -0.02620000
C        0.04110000      -2.79760000      -0.03270000
C        1.23310000      -2.07680000      -0.01880000
C        1.23430000      -0.68730000       0.02560000
H        0.76520000       1.90080000      -0.23100000
H       -0.90720000       1.81480000      -0.12510000
H        0.01640000      -3.87930000      -0.06550000
H        2.17750000      -2.60910000      -0.04210000
H        2.17070000      -0.13960000       0.04180000
