21
Properties=species:S:1:pos:R:3 gdb_121566=T pbc="F F F"
C       -0.62380000       1.26230000      -0.54500000
C        0.09180000      -0.00150000      -0.10060000
O        0.73280000      -0.57150000      -1.22470000
C        1.42640000      -1.76210000      -0.90380000
C        2.07240000      -2.30720000      -2.09000000
C        2.62420000      -2.77140000      -3.05370000
C        3.26220000      -3.33820000      -4.23390000
C        2.27150000      -4.06360000      -5.15100000
O        3.01670000      -4.56730000      -6.24650000
H        0.08880000       1.97870000      -0.96330000
H       -1.36750000       1.03140000      -1.31280000
H       -1.13210000       1.73080000       0.30300000
H        0.83250000       0.22770000       0.68510000
H       -0.62390000      -0.72010000       0.33510000
H        2.18340000      -1.56620000      -0.12370000
H        0.73050000      -2.50770000      -0.47980000
H        3.76080000      -2.55200000      -4.81370000
H        4.04550000      -4.04760000      -3.93970000
H        1.77640000      -4.86950000      -4.58890000
H        1.49240000      -3.35840000      -5.47610000
H        2.41040000      -5.01300000      -6.84490000
