21
Properties=species:S:1:pos:R:3 gdb_113729=T pbc="F F F"
C       -0.28260000       1.54320000       0.40610000
C        0.28560000       0.23990000      -0.16980000
C        1.08620000      -0.51890000       0.86080000
O        0.38220000      -1.16690000       1.93550000
C        1.13480000      -1.97880000       1.04000000
C        0.41820000      -3.05500000       0.21620000
C        0.54780000      -4.42240000       0.92890000
C       -0.99050000      -2.78250000      -0.06180000
C       -2.16340000      -2.65090000      -0.28950000
H        0.51410000       2.19740000       0.77780000
H       -0.84280000       2.09650000      -0.35330000
H       -0.95710000       1.32960000       1.24040000
H       -0.52360000      -0.38370000      -0.55290000
H        0.95220000       0.46390000      -1.01340000
H        1.96950000       0.02430000       1.21120000
H        2.05640000      -2.37390000       1.47670000
H        0.95230000      -3.12650000      -0.74290000
H        1.60200000      -4.67870000       1.07220000
H        0.06150000      -4.38750000       1.90760000
H        0.07540000      -5.21030000       0.33790000
H       -3.19690000      -2.50590000      -0.48560000
