15
Properties=species:S:1:pos:R:3 gdb_75416=T pbc="F F F"
N        0.02240000       1.32180000       0.05190000
C       -0.07560000      -0.03270000       0.01490000
N       -1.20590000      -0.63850000      -0.03920000
C       -1.26360000      -2.08550000       0.00420000
C       -0.01780000      -2.82150000      -0.53730000
C        1.23840000      -2.26290000       0.07730000
O        2.15050000      -2.90030000       0.53790000
C        1.27420000      -0.72110000       0.08370000
O        2.30680000      -0.09650000       0.13890000
H        0.93500000       1.73280000      -0.04570000
H       -0.80220000       1.87620000      -0.09870000
H       -1.45150000      -2.40320000       1.04040000
H       -2.14130000      -2.40600000      -0.56690000
H       -0.06610000      -3.90180000      -0.37780000
H        0.04000000      -2.63650000      -1.62010000
