19
Properties=species:S:1:pos:R:3 gdb_40726=T pbc="F F F"
C        0.14320000       1.44580000       0.00060000
O        1.18020000       0.47280000      -0.14040000
C       -0.17380000       0.01540000      -0.06380000
C       -0.51900000      -0.75820000       1.18320000
O       -1.95110000      -0.75520000       1.40700000
C       -2.23920000      -2.16360000       1.51200000
C       -1.09550000      -2.69660000       2.40740000
C       -0.26020000      -2.27550000       1.15400000
C       -1.47990000      -2.77320000       0.31110000
H        0.10970000       1.95830000       0.96100000
H       -0.03080000       2.07500000      -0.87070000
H       -0.56980000      -0.37830000      -0.99960000
H       -0.00680000      -0.28180000       2.02970000
H       -3.30020000      -2.30420000       1.71040000
H       -0.91420000      -2.17550000       3.35070000
H       -1.12270000      -3.77740000       2.55440000
H        0.76260000      -2.60500000       0.97970000
H       -1.53590000      -3.86200000       0.26970000
H       -1.66510000      -2.33960000      -0.67360000
