19
Properties=species:S:1:pos:R:3 gdb_100409=T pbc="F F F"
C        0.07340000       1.18710000      -0.46990000
O       -0.15390000      -0.05250000       0.19800000
C       -1.39270000      -0.57240000       0.09480000
N       -1.47640000      -1.73220000       0.82140000
N       -2.31680000       0.00370000      -0.57010000
C       -3.59350000      -0.63250000      -0.67640000
C       -4.70010000      -0.26330000       0.30980000
C       -4.70000000       0.29950000      -1.09380000
O       -4.35390000       1.62840000      -1.30540000
H        1.12910000       1.41300000      -0.31350000
H       -0.14730000       1.10190000      -1.53700000
H       -0.54920000       1.97910000      -0.04430000
H       -0.60870000      -2.19560000       1.03590000
H       -2.27200000      -2.32350000       0.65390000
H       -3.59950000      -1.64610000      -1.08160000
H       -5.43130000      -1.02120000       0.57320000
H       -4.43210000       0.42190000       1.10620000
H       -5.45260000      -0.05790000      -1.79130000
H       -3.38720000       1.64880000      -1.20820000
