16
Properties=species:S:1:pos:R:3 gdb_123596=T pbc="F F F"
C       -0.01990000       1.51380000      -0.06820000
C        1.54030000       1.33870000      -0.03070000
C        1.15830000       0.16580000       0.94120000
N       -0.09910000      -0.02130000       0.06670000
C        0.58480000      -0.35580000      -1.17840000
C        0.62700000      -1.14930000      -2.28730000
N        1.73040000      -0.70760000      -2.98430000
N        2.39710000       0.32640000      -2.38240000
C        1.68450000       0.51830000      -1.29470000
H       -0.43600000       1.98580000       0.82600000
H       -0.48030000       1.91180000      -0.97420000
H        2.23840000       2.13520000       0.21800000
H        1.81010000      -0.70840000       0.98790000
H        0.86720000       0.49490000       1.94240000
H        0.01830000      -1.95840000      -2.65710000
H        2.07750000      -1.05880000      -3.85910000
