15
Properties=species:S:1:pos:R:3 gdb_42667=T pbc="F F F"
O        0.00260000       0.07230000       0.18550000
C       -0.04640000       1.26730000       0.06060000
C       -1.22720000       2.16850000      -0.02780000
C       -0.97150000       3.49910000       0.71940000
C        0.20400000       3.56200000       1.67820000
O        1.34860000       2.84490000       1.19710000
C        1.14470000       2.24930000      -0.06560000
O        0.70840000       3.20010000      -1.01750000
C       -0.66660000       3.39710000      -0.72960000
H       -2.22730000       1.78350000      -0.16760000
H       -1.85930000       4.04210000       1.02600000
H        0.50180000       4.60840000       1.82190000
H       -0.07490000       3.15290000       2.65720000
H        2.08800000       1.80870000      -0.38100000
H       -1.19230000       3.93840000      -1.50460000
