20
Properties=species:S:1:pos:R:3 gdb_126551=T pbc="F F F"
C       -0.09440000       1.55170000      -0.03830000
C       -0.12870000       0.02260000      -0.07700000
C        0.88080000      -0.56720000      -1.07810000
C        0.81450000      -2.05800000      -1.15730000
N        1.81150000      -2.84330000      -0.76780000
N        1.32300000      -4.08810000      -0.99740000
C        2.11560000      -5.26140000      -0.70610000
C        0.07810000      -3.99430000      -1.50400000
N       -0.28190000      -2.73140000      -1.62120000
H        0.89620000       1.92070000       0.25090000
H       -0.33150000       1.97800000      -1.01950000
H       -0.81930000       1.94700000       0.68000000
H        0.08230000      -0.38060000       0.92120000
H       -1.13200000      -0.32580000      -0.34570000
H        0.68060000      -0.15060000      -2.07320000
H        1.90060000      -0.28000000      -0.80330000
H        2.37070000      -5.29130000       0.35630000
H        1.53620000      -6.15000000      -0.96360000
H        3.03870000      -5.24930000      -1.29130000
H       -0.51210000      -4.85970000      -1.76840000
