23
Properties=species:S:1:pos:R:3 gdb_103183=T pbc="F F F"
C       -0.03720000       1.43150000       0.00350000
O        0.18250000       0.02970000       0.00350000
C        0.74770000      -0.53770000       1.18520000
C        0.14930000       0.00330000       2.47450000
C        0.75490000      -2.09240000       1.00510000
C       -0.32220000      -2.74160000       0.14950000
C        2.20380000      -2.00320000       0.45170000
C        2.31400000      -0.57360000       1.04150000
O        2.92380000       0.42970000       0.27090000
H        0.86100000       1.99210000       0.28820000
H       -0.31350000       1.69750000      -1.02070000
H       -0.86200000       1.71930000       0.66800000
H       -0.93810000      -0.13130000       2.49190000
H        0.56930000      -0.53780000       3.32740000
H        0.36770000       1.06540000       2.62130000
H        0.76470000      -2.55210000       1.99950000
H       -0.37940000      -2.26570000      -0.83210000
H       -0.10830000      -3.80650000       0.00700000
H       -1.30930000      -2.66020000       0.61770000
H        2.92960000      -2.74820000       0.78560000
H        2.21260000      -1.97190000      -0.64300000
H        2.80880000      -0.56090000       2.01710000
H        2.44530000       0.44620000      -0.56660000
