16
Properties=species:S:1:pos:R:3 gdb_20649=T pbc="F F F"
C       -0.08370000       1.51460000       0.13130000
C       -0.01520000       0.03610000      -0.07070000
C       -0.18170000      -0.74930000      -1.19290000
C        0.02030000      -2.07790000      -0.75110000
C       -0.07230000      -3.33660000      -1.55330000
O        0.55320000      -3.11550000      -2.81290000
N        0.29570000      -2.12320000       0.54890000
N        0.26060000      -0.83140000       0.93960000
H        0.87940000       1.92860000       0.45230000
H       -0.36090000       2.00610000      -0.80330000
H       -0.82880000       1.78940000       0.88690000
H       -0.40140000      -0.41560000      -2.19360000
H        0.40630000      -4.14890000      -0.98790000
H       -1.13060000      -3.61270000      -1.69350000
H        0.38450000      -3.88660000      -3.36220000
H        0.45170000      -0.61080000       1.90230000
