15
Properties=species:S:1:pos:R:3 gdb_132574=T pbc="F F F"
C       -0.01570000       1.52160000       0.00290000
C       -0.01520000       0.01990000      -0.01380000
N       -0.05100000      -0.63610000      -1.17790000
C       -0.05240000      -1.96340000      -1.16590000
C       -0.01380000      -2.69170000       0.03580000
N       -0.06770000      -4.06600000       0.07210000
N        0.03130000      -2.04970000       1.21160000
C        0.02550000      -0.74120000       1.15800000
F        0.07000000      -0.10340000       2.32680000
H        0.87890000       1.91820000       0.49550000
H       -0.04710000       1.89130000      -1.02310000
H       -0.87970000       1.91660000       0.54850000
H       -0.08590000      -2.47300000      -2.12550000
H        0.23940000      -4.56130000      -0.74940000
H        0.21780000      -4.47760000       0.94750000
