13
Properties=species:S:1:pos:R:3 gdb_11700=T pbc="F F F"
O       -0.12520000      -0.01060000       0.03020000
C       -0.01880000       1.18210000      -0.10760000
C        1.25850000       1.90950000       0.05450000
C        1.33830000       3.36070000       0.32390000
N        1.67360000       2.93030000      -1.05110000
C        3.01600000       2.34070000      -0.96430000
O        3.97870000       2.62840000      -1.59640000
C        2.63960000       1.26420000       0.06270000
H       -0.88250000       1.82740000      -0.37780000
H        0.41560000       3.93170000       0.36520000
H        2.12980000       3.72810000       0.97310000
H        3.19260000       1.25250000       1.00450000
H        2.64600000       0.26330000      -0.37470000
