18
Properties=species:S:1:pos:R:3 gdb_97111=T pbc="F F F"
C        0.08200000       1.52820000       0.10080000
N        0.23810000       0.08580000      -0.02440000
C        0.53900000      -0.59210000       0.97960000
O        0.75170000      -0.22670000       2.30350000
C        1.07240000      -1.60060000       2.67850000
C        0.78470000      -2.07240000       1.23880000
C       -0.24760000      -3.14440000       0.84040000
C        0.91360000      -3.74540000       0.02480000
O        1.82560000      -2.73660000       0.52310000
H        0.74220000       2.02040000      -0.62130000
H       -0.94460000       1.80110000      -0.16820000
H        0.29860000       1.91730000       1.10220000
H        2.11930000      -1.70120000       2.97550000
H        0.40370000      -1.96390000       3.46350000
H       -0.60420000      -3.76010000       1.66800000
H       -1.09370000      -2.76960000       0.26450000
H        1.23700000      -4.75450000       0.30180000
H        0.80210000      -3.68380000      -1.06270000
