13
Properties=species:S:1:pos:R:3 gdb_31447=T pbc="F F F"
O        0.15830000       1.37310000      -0.06030000
C        0.03900000      -0.01510000      -0.06610000
C       -1.38170000      -0.49960000      -0.02030000
N       -2.32170000       0.39700000       0.01830000
C       -3.63400000      -0.00400000       0.06090000
O       -4.60890000       0.67210000       0.09950000
O       -3.83840000      -1.43540000       0.05750000
C       -2.78510000      -2.23510000       0.01570000
N       -1.55320000      -1.86860000      -0.02390000
H       -0.74310000       1.72760000      -0.02690000
H        0.50160000      -0.45800000      -0.96400000
H        0.56250000      -0.47030000       0.79130000
H       -3.06190000      -3.28710000       0.01780000
