18
Properties=species:S:1:pos:R:3 gdb_105703=T pbc="F F F"
O        0.36510000       0.89030000       0.73240000
C        0.05390000      -0.13460000      -0.19510000
C       -1.41550000      -0.50200000      -0.13590000
C       -2.37330000       0.60920000      -0.53900000
N       -3.73960000       0.31720000      -0.16010000
C       -4.78590000       0.40360000      -1.02380000
O       -4.71150000       0.75730000      -2.18170000
C       -1.82110000      -1.90990000      -0.16010000
O       -1.77150000      -1.18980000       1.08350000
H        0.15240000       0.54510000       1.60730000
H        0.30730000       0.25830000      -1.18580000
H        0.66060000      -1.03470000      -0.02140000
H       -2.02560000       1.53870000      -0.07220000
H       -2.36070000       0.75420000      -1.62260000
H       -3.89250000      -0.03080000       0.77390000
H       -5.73880000       0.11080000      -0.54050000
H       -2.82070000      -2.17180000      -0.49910000
H       -1.06790000      -2.68750000      -0.27350000
