16
Properties=species:S:1:pos:R:3 gdb_13101=T pbc="F F F"
C       -0.10440000       1.48200000       0.06370000
N        0.04650000       0.04440000       0.10810000
C       -0.99680000      -0.65400000      -0.02980000
N       -0.99850000      -2.03920000      -0.00800000
C       -2.12410000      -2.97690000      -0.15220000
C       -1.10830000      -4.13860000       0.01320000
C       -0.02860000      -3.04440000       0.14880000
O        1.15300000      -3.01320000       0.31770000
H        0.51560000       1.89040000      -0.74270000
H       -1.14360000       1.81800000      -0.09020000
H        0.26660000       1.91810000       0.99850000
H       -2.00670000      -0.24080000      -0.18070000
H       -2.87010000      -2.89210000       0.64340000
H       -2.61780000      -2.92300000      -1.12700000
H       -1.23420000      -4.75260000       0.90650000
H       -0.98170000      -4.78330000      -0.85810000
