20
Properties=species:S:1:pos:R:3 gdb_102098=T pbc="F F F"
C       -1.63010000       0.36140000       2.06180000
C       -0.82690000      -0.68290000       1.31790000
C       -0.10210000      -0.35270000       0.05860000
N        0.64180000      -0.69940000       1.27100000
C        1.43080000       0.33410000       1.93480000
C        1.83720000      -0.20140000       3.32150000
O        2.51550000      -1.43340000       3.20730000
C        2.69080000       0.59900000       1.11250000
O        3.35920000       1.59070000       1.23820000
H       -1.27280000       1.37760000       1.87970000
H       -2.67320000       0.31740000       1.73220000
H       -1.61760000       0.18090000       3.14200000
H       -1.23910000      -1.68740000       1.40020000
H       -0.03870000      -1.06430000      -0.76000000
H       -0.10680000       0.69290000      -0.24780000
H        0.91830000       1.29890000       2.05960000
H        2.51550000       0.51040000       3.80130000
H        0.93390000      -0.28760000       3.94750000
H        1.99570000      -1.95470000       2.58040000
H        2.95580000      -0.20410000       0.39170000
