19
Properties=species:S:1:pos:R:3 gdb_47444=T pbc="F F F"
O        0.30620000       0.06260000      -0.78660000
C        0.15600000       1.19670000      -0.38620000
N       -1.00940000       1.76420000       0.04310000
C       -0.86760000       3.10070000       0.59910000
C        0.46800000       3.56840000      -0.01900000
C        1.25680000       2.26810000      -0.22750000
N        2.02240000       1.92760000       0.97020000
C        3.01070000       0.86400000       0.81440000
C        3.44190000       2.28150000       0.95570000
H       -1.82630000       1.19060000       0.18270000
H       -1.70700000       3.74110000       0.31170000
H       -0.81240000       3.07730000       1.69500000
H        0.27890000       4.04410000      -0.98590000
H        0.99730000       4.27830000       0.61910000
H        1.88310000       2.28510000      -1.13270000
H        3.09330000       0.17760000       1.65170000
H        3.09920000       0.39930000      -0.16380000
H        3.83300000       2.77640000       0.06810000
H        3.84560000       2.64760000       1.89520000
