15
Properties=species:S:1:pos:R:3 gdb_132572=T pbc="F F F"
C       -0.00050000       1.49000000       0.02700000
C        0.00220000      -0.01150000      -0.01220000
N       -0.10110000      -0.61920000      -1.19190000
C       -0.10310000      -1.95620000      -1.19720000
C       -0.00570000      -2.72670000      -0.04110000
N       -0.07020000      -4.11260000       0.00020000
C        0.10690000      -1.95660000       1.12540000
F        0.22650000      -2.61510000       2.28230000
N        0.11300000      -0.65680000       1.16620000
H        0.91150000       1.86360000       0.50360000
H       -0.07200000       1.89010000      -0.98450000
H       -0.84360000       1.85670000       0.62170000
H       -0.18660000      -2.44280000      -2.16770000
H        0.23070000      -4.58140000      -0.84190000
H        0.33000000      -4.52150000       0.83180000
