20
Properties=species:S:1:pos:R:3 gdb_92091=T pbc="F F F"
O        0.07570000       1.39790000       0.10380000
C        0.01260000      -0.02380000       0.04120000
C       -1.42530000      -0.56170000       0.06910000
C       -2.16640000      -0.28920000      -1.22250000
N       -2.00520000       1.07650000      -1.76350000
C       -1.41170000      -0.07120000      -2.48790000
C        0.10840000      -0.11080000      -2.52690000
C        0.78210000      -0.52090000      -1.19420000
O        2.11490000      -0.04620000      -1.14600000
H       -0.59870000       1.71880000      -0.52220000
H        0.54900000      -0.38370000       0.92610000
H       -1.39870000      -1.64500000       0.24220000
H       -1.96090000      -0.11230000       0.91330000
H       -3.15510000      -0.73620000      -1.30240000
H       -2.85420000       1.40030000      -2.21620000
H       -1.91300000      -0.35650000      -3.40970000
H        0.44020000      -0.79620000      -3.31270000
H        0.47840000       0.88140000      -2.80750000
H        0.84130000      -1.61560000      -1.14340000
H        2.03610000       0.87080000      -0.84620000
