15
Properties=species:S:1:pos:R:3 gdb_50475=T pbc="F F F"
O       -0.90970000       1.30460000      -0.08460000
C        0.19020000       0.82050000      -0.10270000
C        1.46600000       1.63800000       0.04070000
C        1.31750000       2.76040000       1.05370000
O        2.55580000       3.46420000       1.24290000
C        3.74090000       2.83550000       1.07990000
O        4.76680000       3.40340000       1.32840000
C        3.74250000       1.42080000       0.50050000
O        2.49130000       0.76180000       0.45720000
H        0.37140000      -0.26760000      -0.23220000
H        1.69880000       2.06440000      -0.95360000
H        0.58460000       3.49760000       0.72260000
H        0.99610000       2.35080000       2.01750000
H        4.17940000       1.50070000      -0.50810000
H        4.41660000       0.81240000       1.10630000
