17
Properties=species:S:1:pos:R:3 gdb_125775=T pbc="F F F"
C       -0.41850000       1.55270000      -0.26530000
C       -0.12640000       0.10090000      -0.05750000
N       -0.14980000      -0.71440000      -1.08880000
O        0.16480000      -1.99400000      -0.56530000
C        0.34940000      -1.86990000       0.74450000
O        0.66530000      -2.96480000       1.41870000
C        0.18720000      -0.57230000       1.15590000
C        0.30170000      -0.10400000       2.57390000
N        1.19300000      -1.02940000       3.31610000
H        0.87540000      -2.62880000       2.32510000
H        2.16300000      -0.83070000       3.08680000
H        1.09160000      -0.89640000       4.31680000
H        0.41450000       2.17590000       0.07860000
H       -0.58600000       1.74970000      -1.32590000
H       -1.30990000       1.86140000       0.29150000
H        0.64350000       0.94070000       2.61420000
H       -0.67140000      -0.12900000       3.08280000
