19
Properties=species:S:1:pos:R:3 gdb_49667=T pbc="F F F"
O       -0.28560000       0.09810000      -0.18450000
C       -0.13470000       1.25680000       0.13020000
C        1.17280000       1.94720000       0.07100000
C        1.30930000       3.42510000      -0.31110000
C        0.10380000       4.29810000      -0.62750000
C       -0.78800000       4.58850000       0.54840000
C       -0.53430000       4.21490000       1.80090000
C        0.68330000       3.44480000       2.23320000
C        1.59440000       3.00530000       1.09650000
H       -0.99200000       1.86540000       0.48450000
H        1.96220000       1.29230000      -0.28420000
H        2.16960000       3.61900000      -0.94400000
H        0.47020000       5.25430000      -1.02730000
H       -0.48660000       3.85940000      -1.44390000
H       -1.68870000       5.15760000       0.33140000
H       -1.23090000       4.48350000       2.59130000
H        1.26860000       4.07860000       2.91450000
H        0.38160000       2.58110000       2.84180000
H        2.64000000       2.92650000       1.37770000
