17
Properties=species:S:1:pos:R:3 gdb_30036=T pbc="F F F"
C       -0.09120000       1.58410000      -0.01250000
C        0.00620000       0.04710000       0.00230000
C        0.84680000      -0.52030000      -1.13840000
C        1.85900000      -1.25360000      -0.66290000
N        1.80570000      -1.26690000       0.74360000
C        2.46010000      -1.76140000       1.83330000
N        1.87290000      -1.37470000       2.94640000
C        0.79510000      -0.59810000       2.56240000
C        0.73360000      -0.51810000       1.19690000
H        0.90350000       2.03540000       0.03660000
H       -0.58560000       1.93240000      -0.92490000
H       -0.67050000       1.93930000       0.84470000
H       -1.01330000      -0.36000000      -0.05960000
H        0.64200000      -0.33530000      -2.18340000
H        2.63910000      -1.78930000      -1.18310000
H        3.33730000      -2.38560000       1.75920000
H        0.14050000      -0.15540000       3.29730000
