18
Properties=species:S:1:pos:R:3 gdb_68432=T pbc="F F F"
O       -0.12330000       1.38570000      -0.02550000
C       -0.05070000       0.00340000       0.01800000
C        0.34450000      -0.81650000       1.28870000
C       -0.43410000      -1.93490000       0.54260000
C       -1.36670000      -0.80800000       0.01130000
C        0.47300000      -2.20920000      -0.67460000
C        0.79680000      -0.72390000      -1.07800000
C        0.41660000      -0.37310000      -2.44030000
N        0.11480000      -0.09920000      -3.52230000
H        0.76740000       1.75290000      -0.05190000
H        1.40540000      -0.97560000       1.50660000
H       -0.17920000      -0.44740000       2.17210000
H       -0.82960000      -2.80240000       1.06680000
H       -2.06170000      -0.44200000       0.76880000
H       -1.87860000      -0.95280000      -0.94320000
H        1.37930000      -2.76240000      -0.41630000
H       -0.04260000      -2.74470000      -1.47450000
H        1.86130000      -0.49580000      -0.95400000
