19
Properties=species:S:1:pos:R:3 gdb_114907=T pbc="F F F"
O        0.20360000       1.08520000      -0.47920000
C        0.11080000      -0.23150000       0.03610000
C       -1.34300000      -0.65090000       0.13530000
O       -2.01330000      -0.55540000      -1.15630000
C       -2.61000000      -1.86730000      -0.99150000
C       -2.15040000      -2.88600000      -2.02300000
C       -0.73740000      -3.23770000      -1.53260000
O       -0.76680000      -3.09740000      -0.10740000
C       -1.74140000      -2.14100000       0.25760000
H       -0.31270000       1.09020000      -1.29410000
H        0.67560000      -0.94680000      -0.57710000
H        0.56380000      -0.22100000       1.03330000
H       -1.86270000      -0.01710000       0.86720000
H       -3.69500000      -1.80110000      -0.86880000
H       -2.80840000      -3.76060000      -1.98570000
H       -2.16350000      -2.48130000      -3.03770000
H       -0.43750000      -4.26480000      -1.75550000
H        0.00440000      -2.55760000      -1.97110000
H       -2.19900000      -2.45350000       1.19750000
