20
Properties=species:S:1:pos:R:3 gdb_37039=T pbc="F F F"
C       -0.04030000       1.54240000      -0.00810000
C        1.52950000       1.58540000      -0.02290000
C        1.53670000       0.05310000       0.10910000
C        2.38050000      -0.84610000       0.96840000
C        1.52200000      -1.87980000       1.66690000
C        0.18840000      -1.91630000       1.67940000
C       -0.73830000      -0.93140000       0.99780000
C        0.03870000       0.01210000       0.12320000
N        0.79370000      -0.56690000      -0.98870000
H       -0.45470000       2.03220000       0.87710000
H       -0.56560000       1.92240000      -0.89160000
H        2.01640000       1.99300000      -0.91600000
H        1.93310000       2.09750000       0.85450000
H        3.16310000      -1.34720000       0.38270000
H        2.90950000      -0.24560000       1.72250000
H        2.06720000      -2.65200000       2.20490000
H       -0.30360000      -2.71690000       2.22730000
H       -1.50330000      -1.47490000       0.42670000
H       -1.28510000      -0.36040000       1.76200000
H        0.76980000       0.02080000      -1.82020000
