20
Properties=species:S:1:pos:R:3 gdb_97020=T pbc="F F F"
C       -0.22820000       1.44170000      -0.01400000
N       -0.20570000      -0.00760000      -0.11180000
C        0.58530000      -0.57180000      -0.91970000
C        0.58370000      -2.07830000      -1.05340000
C        1.85940000      -2.62980000      -1.61430000
C        2.79410000      -1.84550000      -2.13660000
C        2.65390000      -0.35700000      -2.23100000
C        2.83360000       0.15770000      -3.65920000
O        1.38390000       0.13940000      -1.77110000
H        0.70690000       1.92360000      -0.32230000
H       -1.03420000       1.84510000      -0.64080000
H       -0.45540000       1.72220000       1.01910000
H        0.36040000      -2.50240000      -0.07020000
H       -0.26230000      -2.36640000      -1.69530000
H        1.99580000      -3.70700000      -1.58020000
H        3.72070000      -2.25320000      -2.53120000
H        3.42180000       0.11320000      -1.59560000
H        2.09490000      -0.29910000      -4.32370000
H        2.70700000       1.24310000      -3.68530000
H        3.83460000      -0.08560000      -4.02800000
