15
Properties=species:S:1:pos:R:3 gdb_69716=T pbc="F F F"
C       -0.15530000       1.48330000       0.01690000
C        0.15220000       0.02380000       0.01120000
O       -0.70760000      -0.87280000       0.71800000
C        0.68910000      -0.92220000       1.01370000
C        1.36590000      -1.79280000      -0.08280000
C        0.81550000      -0.81540000      -1.13480000
O       -0.02290000      -1.85730000      -1.70530000
C        0.42280000      -2.79030000      -0.78310000
O        0.12160000      -3.93360000      -0.70850000
H        0.70880000       2.06440000      -0.32030000
H       -0.99300000       1.70030000      -0.65500000
H       -0.42890000       1.81140000       1.02290000
H        0.99410000      -0.79030000       2.04470000
H        2.41760000      -2.04560000       0.02480000
H        1.41750000      -0.29850000      -1.87950000
