20
Properties=species:S:1:pos:R:3 gdb_11355=T pbc="F F F"
C        0.00660000       1.50150000       0.35620000
C       -0.08020000       0.08120000      -0.23120000
C       -1.45950000      -0.50930000      -0.17410000
C       -2.24290000      -0.81280000      -1.21420000
C       -3.53270000      -1.47910000      -0.80670000
O       -3.56810000      -2.85530000      -1.19840000
C       -3.56950000      -1.25620000       0.72980000
C       -2.13000000      -0.86400000       1.14070000
H        1.02840000       1.88650000       0.28620000
H       -0.65280000       2.18760000      -0.18430000
H       -0.28370000       1.51950000       1.41110000
H        0.26550000       0.09670000      -1.27070000
H        0.61390000      -0.56960000       0.31970000
H       -1.97110000      -0.68270000      -2.25690000
H       -4.41380000      -1.04780000      -1.29330000
H       -2.71250000      -3.23500000      -0.96960000
H       -4.25830000      -0.43910000       0.96470000
H       -3.94150000      -2.15110000       1.23440000
H       -1.58780000      -1.68190000       1.63620000
H       -2.12040000      -0.03000000       1.85120000
