18
Properties=species:S:1:pos:R:3 gdb_64183=T pbc="F F F"
C       -0.27710000       1.51250000      -0.01920000
C        0.01800000       0.02190000      -0.08400000
O       -1.08080000      -0.70590000      -0.56860000
C        1.29710000      -0.39900000      -0.83050000
O        1.93510000      -0.83860000       0.39000000
C        0.75050000      -0.61080000       1.18020000
C        1.04910000       0.24320000       2.40720000
C        0.12590000      -1.87900000       1.59760000
N       -0.37730000      -2.85340000       1.96220000
H        0.60360000       2.09700000       0.25680000
H       -0.61850000       1.84850000      -1.00270000
H       -1.06840000       1.72820000       0.70830000
H       -1.85390000      -0.51680000      -0.02450000
H        1.12460000      -1.22390000      -1.52890000
H        1.86640000       0.39800000      -1.31940000
H        1.53120000       1.17580000       2.10970000
H        0.13310000       0.46810000       2.96160000
H        1.72750000      -0.29840000       3.07190000
