15
Properties=species:S:1:pos:R:3 gdb_43490=T pbc="F F F"
N       -0.05340000       1.32150000      -0.15930000
C       -0.02490000       0.06930000      -0.07560000
O        1.10970000      -0.71910000      -0.14040000
C        0.78980000      -2.05960000       0.11220000
O        1.61980000      -2.87900000       0.35920000
N       -0.58690000      -2.20220000       0.04280000
C       -1.31750000      -2.63920000       1.27450000
C       -1.80920000      -1.17640000       1.48380000
C       -1.20110000      -0.86010000       0.08250000
H        0.88340000       1.71060000      -0.27470000
H       -2.10740000      -3.35360000       1.03500000
H       -0.65860000      -3.06580000       2.03320000
H       -2.88580000      -1.03070000       1.57100000
H       -1.30610000      -0.65460000       2.29960000
H       -1.94380000      -0.68610000      -0.69950000
