17
Properties=species:S:1:pos:R:3 gdb_38608=T pbc="F F F"
C       -0.00230000       1.55260000      -0.10860000
C        1.29310000       0.79250000       0.00580000
O        2.03620000       0.80640000       1.19910000
C        1.49170000       0.07070000       2.25340000
C       -0.02460000       0.15330000       2.61360000
O        0.13180000      -1.12700000       3.32250000
C        0.83020000      -1.33060000       2.04200000
C       -0.34160000      -0.62030000       1.30280000
C       -0.00140000       0.03460000      -0.01140000
H       -0.34150000       2.11400000       0.75530000
H       -0.23510000       2.00990000      -1.06390000
H        1.95350000       0.76560000      -0.85390000
H        2.17110000       0.13580000       3.10250000
H       -0.59200000       0.93920000       3.11330000
H        1.28400000      -2.30470000       1.85890000
H       -1.29040000      -1.15970000       1.32510000
H       -0.25280000      -0.53280000      -0.90210000
