21
Properties=species:S:1:pos:R:3 gdb_94061=T pbc="F F F"
C       -0.01210000       1.56190000       0.04370000
C        0.01220000       0.03280000      -0.00680000
C        0.69090000      -0.50150000      -1.27810000
C        0.80860000      -2.03060000      -1.24030000
C        1.47450000      -2.47660000       0.07570000
O        0.76070000      -1.97130000       1.20010000
C        0.72370000      -0.55320000       1.21900000
C        1.54790000      -3.93000000       0.19070000
C        1.61560000      -5.12800000       0.24290000
H        1.00400000       1.97370000       0.04360000
H       -0.53650000       1.97570000      -0.82370000
H       -0.51870000       1.92510000       0.94440000
H       -1.02100000      -0.34070000       0.01270000
H        0.13880000      -0.18440000      -2.17000000
H        1.69490000      -0.05960000      -1.35920000
H       -0.18280000      -2.49380000      -1.29270000
H        1.39200000      -2.40520000      -2.08770000
H        2.50330000      -2.07100000       0.09650000
H        1.75060000      -0.14810000       1.27750000
H        0.20530000      -0.28150000       2.14360000
H        1.67650000      -6.18640000       0.30310000
