20
Properties=species:S:1:pos:R:3 gdb_58980=T pbc="F F F"
C       -0.01300000       1.42150000       0.06190000
N        0.07680000      -0.02770000       0.00690000
C       -0.15630000      -0.73470000       1.25430000
C        0.02540000      -0.64460000      -1.20240000
C       -0.03490000      -0.04920000      -2.42860000
C       -0.01130000      -1.03580000      -3.49500000
O       -0.05800000      -0.84740000      -4.69470000
C        0.08380000      -2.42590000      -2.83360000
C        0.06760000      -2.15980000      -1.31860000
H        0.67500000       1.86710000      -0.66140000
H       -1.02720000       1.78530000      -0.15720000
H        0.26860000       1.76190000       1.06090000
H       -1.20570000      -0.67050000       1.57940000
H        0.10590000      -1.78730000       1.15460000
H        0.46780000      -0.30410000       2.04390000
H       -0.10450000       1.00970000      -2.63050000
H       -0.74920000      -3.05050000      -3.16720000
H        1.00290000      -2.91950000      -3.16250000
H        0.95170000      -2.56400000      -0.81190000
H       -0.80390000      -2.61080000      -0.83040000
