10
Properties=species:S:1:pos:R:3 gdb_3642=T pbc="F F F"
C       -0.00050000      -1.15040000      -0.00370000
C       -0.00800000       0.05140000       0.00310000
C       -0.00280000       1.46990000       0.01090000
N       -1.12710000       2.18590000       0.03000000
N       -0.65420000       3.44840000       0.03080000
C        0.69550000       3.45160000       0.01290000
N        1.14860000       2.21750000      -0.00000000
H        0.00510000      -2.21230000      -0.00970000
H       -1.29940000       4.22160000       0.04380000
H        1.28720000       4.35460000       0.01020000
