23
Properties=species:S:1:pos:R:3 gdb_39495=T pbc="F F F"
C        0.02700000       1.40610000      -0.45770000
C        1.31460000       0.72500000      -0.04920000
C        2.16900000       1.16870000       1.14610000
C        1.96840000       0.41960000       2.47880000
C        0.83750000       1.00660000       3.33940000
O       -0.28190000       1.46340000       2.60350000
C       -1.22550000       0.48450000       2.21820000
C       -0.73830000      -0.55760000       1.20490000
C        0.00040000      -0.04100000      -0.02450000
H       -0.36230000       2.13950000       0.23800000
H       -0.13650000       1.64490000      -1.50360000
H        1.93280000       0.42820000      -0.89270000
H        3.21530000       1.03940000       0.84910000
H        2.04120000       2.24360000       1.31980000
H        1.81450000      -0.64600000       2.28470000
H        2.88790000       0.48730000       3.07390000
H        0.52230000       0.28940000       4.11460000
H        1.21320000       1.89920000       3.85290000
H       -1.61530000      -0.03630000       3.10920000
H       -2.05320000       1.05430000       1.78280000
H       -0.13450000      -1.32170000       1.70850000
H       -1.63980000      -1.08360000       0.86230000
H       -0.07280000      -0.75060000      -0.84560000
