18
Properties=species:S:1:pos:R:3 gdb_86023=T pbc="F F F"
C       -0.03540000       1.36740000       0.07310000
N       -0.01820000      -0.05540000      -0.18170000
C       -1.19100000      -0.88200000       0.08940000
C       -0.56850000      -2.32260000       0.03920000
C       -0.88350000      -3.04530000      -1.28310000
N        0.90110000      -2.11630000       0.14260000
C        1.08100000      -0.85650000       0.00360000
C       -1.04040000      -3.13350000       1.17230000
N       -1.44310000      -3.75800000       2.05700000
H        0.95970000       1.78010000      -0.11130000
H       -0.73960000       1.86870000      -0.59900000
H       -0.32370000       1.60230000       1.10920000
H       -1.61430000      -0.64940000       1.07620000
H       -1.97240000      -0.74240000      -0.66400000
H       -0.56810000      -2.41440000      -2.11870000
H       -0.33570000      -3.98820000      -1.33150000
H       -1.95460000      -3.24870000      -1.37290000
H        2.06740000      -0.40040000      -0.01150000
