19
Properties=species:S:1:pos:R:3 gdb_93431=T pbc="F F F"
C       -0.21050000       1.53430000       0.01750000
C        0.05330000       0.02690000      -0.00630000
C        0.77330000      -0.45110000      -1.27500000
C        1.03360000      -1.95800000      -1.21420000
C        1.82310000      -2.34760000       0.01250000
N        2.62690000      -3.33410000      -0.01790000
N        1.57820000      -1.55620000       1.14010000
C        0.80260000      -0.40770000       1.25170000
O        0.74140000       0.17910000       2.31080000
H        0.72500000       2.09620000      -0.07130000
H       -0.85900000       1.81930000      -0.81600000
H       -0.68580000       1.82620000       0.95510000
H       -0.91480000      -0.49580000       0.04550000
H        0.16930000      -0.20900000      -2.15490000
H        1.72180000       0.09000000      -1.38460000
H        0.07420000      -2.49230000      -1.18330000
H        1.57560000      -2.32690000      -2.08620000
H        3.06920000      -3.49360000       0.89030000
H        2.06240000      -1.79600000       1.99680000
