15
Properties=species:S:1:pos:R:3 gdb_51969=T pbc="F F F"
N       -0.05440000       1.07720000      -0.15210000
C       -0.30560000      -0.12000000       0.13860000
O       -0.35180000      -1.04630000      -0.85560000
C       -0.68360000      -2.35760000      -0.48920000
C       -2.16330000      -2.53160000      -0.13740000
O       -2.87850000      -1.60760000       0.13340000
C       -2.64390000      -3.99470000      -0.15270000
C       -3.90160000      -4.20120000       0.55220000
N       -4.89140000      -4.38260000       1.11740000
H       -0.03580000       1.64720000       0.69070000
H       -0.48220000      -0.53840000       1.13680000
H       -0.42160000      -2.99880000      -1.33710000
H       -0.09440000      -2.71250000       0.37330000
H       -2.75800000      -4.29270000      -1.20370000
H       -1.86980000      -4.64990000       0.26480000
