17
Properties=species:S:1:pos:R:3 gdb_9310=T pbc="F F F"
C        0.08430000       1.54370000       0.00910000
C        0.00410000       0.01500000       0.00210000
C       -1.43830000      -0.50230000       0.01300000
C       -1.51380000      -2.02860000       0.00590000
C       -2.92480000      -2.56550000       0.01660000
O       -3.92870000      -1.89980000       0.02980000
C       -3.01990000      -4.04580000       0.00950000
N       -3.07870000      -5.20070000       0.00410000
H        1.12330000       1.88620000       0.00110000
H       -0.41490000       1.97010000      -0.86770000
H       -0.39820000       1.96110000       0.89960000
H        0.52490000      -0.37640000      -0.88190000
H        0.54150000      -0.38540000       0.87200000
H       -1.96720000      -0.12090000       0.89410000
H       -1.98370000      -0.11200000      -0.85390000
H       -1.00730000      -2.45710000      -0.87150000
H       -0.99080000      -2.46590000       0.86930000
