14
Properties=species:S:1:pos:R:3 gdb_129028=T pbc="F F F"
N       -0.03890000       0.93980000       1.10300000
C        0.01590000       0.06230000       0.16320000
C       -1.26540000      -0.51590000      -0.25110000
C       -1.52280000      -1.43520000      -1.18880000
C       -0.61490000      -2.15740000      -2.09610000
O       -1.03830000      -2.97080000      -2.89500000
N        0.76720000      -1.93600000      -2.07460000
N        1.61240000      -1.15910000      -1.38170000
C        1.29670000      -0.33220000      -0.45420000
H        0.89730000       1.28840000       1.32740000
H       -2.09920000      -0.10770000       0.31260000
H       -2.55050000      -1.74080000      -1.35470000
H        1.24200000      -2.51050000      -2.75890000
H        2.16030000       0.18630000      -0.03700000
