13
Properties=species:S:1:pos:R:3 gdb_3765=T pbc="F F F"
C       -0.04650000       1.43720000       0.02170000
N       -0.00930000      -0.01070000       0.02890000
N       -0.00600000      -0.73350000      -1.08280000
N        0.03150000      -1.98510000      -0.70280000
C        0.05000000      -1.97540000       0.65470000
C        0.09300000      -3.20260000       1.49760000
N        0.02480000      -0.73670000       1.14100000
H        0.84180000       1.83370000       0.51820000
H       -0.06950000       1.75550000      -1.01970000
H       -0.93940000       1.78800000       0.54350000
H        0.98570000      -3.79390000       1.27360000
H        0.10310000      -2.93220000       2.55450000
H       -0.77700000      -3.83630000       1.30170000
