26
Properties=species:S:1:pos:R:3 gdb_88949=T pbc="F F F"
C        0.07110000       1.55950000      -0.35330000
C        0.01850000       0.07580000      -0.05850000
C        1.24870000      -0.76370000      -0.08450000
N        0.55310000      -0.51000000       1.17310000
C        1.19030000       0.34810000       2.16800000
C        1.71730000      -0.45450000       3.38040000
C        2.75630000      -1.49230000       2.92050000
C        2.37930000       0.53750000       4.35240000
C        0.54750000      -1.16570000       4.08170000
H        1.04040000       1.99830000      -0.10500000
H       -0.11110000       1.73420000      -1.41900000
H       -0.70010000       2.10190000       0.20510000
H       -0.91400000      -0.39510000      -0.36960000
H        1.22740000      -1.78720000      -0.45130000
H        2.19340000      -0.24520000      -0.25170000
H        2.02360000       0.93580000       1.74620000
H        0.44080000       1.06610000       2.52500000
H        3.59490000      -1.01290000       2.40210000
H        3.16490000      -2.03640000       3.77900000
H        2.31000000      -2.22310000       2.24070000
H        1.66790000       1.30000000       4.68980000
H        2.75610000       0.01920000       5.24060000
H        3.22600000       1.05280000       3.88430000
H        0.02230000      -1.82120000       3.38300000
H        0.90470000      -1.76650000       4.92530000
H       -0.17600000      -0.44060000       4.47230000
