14
Properties=species:S:1:pos:R:3 gdb_5373=T pbc="F F F"
C        0.00820000       1.43070000       0.12510000
N        0.13360000      -0.01320000       0.06470000
C        0.60730000      -0.55000000      -0.98270000
N        0.70840000      -1.96600000      -0.98990000
C        1.19480000      -2.63630000      -2.04390000
N        1.61070000      -2.06410000      -3.13590000
C        1.50150000      -0.68850000      -3.10400000
N        1.05200000       0.06410000      -2.15180000
H        0.57920000       1.80630000       0.98280000
H        0.34960000       1.94420000      -0.77980000
H       -1.04070000       1.69380000       0.30790000
H        0.39250000      -2.43760000      -0.15360000
H        1.23140000      -3.71990000      -1.95090000
H        1.84430000      -0.18910000      -4.00930000
