17
Properties=species:S:1:pos:R:3 gdb_80282=T pbc="F F F"
C       -0.21700000       1.43260000      -0.01040000
C        0.05200000      -0.04180000      -0.03010000
O       -1.05070000      -0.81170000      -0.49230000
C       -1.17910000      -1.96770000       0.23280000
N       -2.11020000      -2.81640000       0.14640000
N       -0.06580000      -2.08440000       1.06250000
C        0.69930000      -0.86540000       1.06320000
C        1.43130000      -0.65170000      -0.25230000
O        1.63830000      -1.71610000      -1.11040000
H        0.66130000       1.97270000       0.35470000
H       -0.44210000       1.79460000      -1.01860000
H       -1.06470000       1.67110000       0.64020000
H       -2.79920000      -2.52110000      -0.54080000
H       -0.16110000      -2.64540000       1.89230000
H        1.04460000      -0.47940000       2.01560000
H        2.25520000       0.05780000      -0.24610000
H        1.29290000      -2.50730000      -0.67210000
