21
Properties=species:S:1:pos:R:3 gdb_66449=T pbc="F F F"
C       -0.00900000       1.44050000       0.03140000
C        0.00720000      -0.05560000      -0.04640000
C       -0.94820000      -0.96840000       0.73100000
C        0.54980000      -1.07390000       0.93480000
C        0.55110000      -2.10060000      -0.24290000
C        1.47900000      -3.25840000      -0.45470000
C       -1.03180000      -2.17780000      -0.22530000
C       -1.08110000      -1.61170000      -1.66530000
C        0.26540000      -0.94760000      -1.28750000
H        0.95280000       1.87070000      -0.27150000
H       -0.78310000       1.86660000      -0.61860000
H       -0.21390000       1.77830000       1.05350000
H       -1.69950000      -0.57700000       1.40540000
H        1.15900000      -0.95780000       1.82300000
H        1.41900000      -3.97380000       0.37410000
H        1.23550000      -3.79730000      -1.37800000
H        2.52080000      -2.92460000      -0.52990000
H       -1.58810000      -3.06230000       0.08650000
H       -0.95240000      -2.39680000      -2.41770000
H       -1.92170000      -0.96830000      -1.94510000
H        0.99290000      -0.61220000      -2.02820000
