25
Properties=species:S:1:pos:R:3 gdb_102398=T pbc="F F F"
C        0.18830000       1.54260000      -0.01190000
C        0.07700000       0.01540000       0.04560000
C       -1.36210000      -0.55470000       0.09670000
C       -2.15720000      -0.10530000       1.34520000
C       -1.47940000      -0.34690000       2.69850000
C       -2.19890000      -0.15970000      -1.16210000
C       -1.62170000      -0.53210000      -2.53350000
C       -1.25250000      -2.07950000       0.07960000
O       -2.00330000      -2.83630000       0.64180000
H        1.23980000       1.84480000      -0.03340000
H       -0.28800000       1.95510000      -0.90650000
H       -0.27210000       2.01860000       0.85900000
H        0.59480000      -0.41250000      -0.82150000
H        0.62820000      -0.34810000       0.92100000
H       -2.39420000       0.95980000       1.24010000
H       -3.11210000      -0.64000000       1.33170000
H       -1.23430000      -1.40350000       2.83790000
H       -0.56000000       0.23570000       2.81380000
H       -2.15090000      -0.05580000       3.51220000
H       -3.18770000      -0.62050000      -1.05270000
H       -2.36600000       0.92290000      -1.12520000
H       -0.66000000      -0.04620000      -2.72350000
H       -1.47780000      -1.61140000      -2.64410000
H       -2.30810000      -0.21450000      -3.32450000
H       -0.40760000      -2.47920000      -0.52920000
