18
Properties=species:S:1:pos:R:3 gdb_30108=T pbc="F F F"
C        0.00140000       1.49890000      -0.31720000
C       -0.06600000       0.03930000       0.03930000
O        1.14920000      -0.71510000      -0.01770000
C        0.54160000      -0.54420000       1.26240000
C        1.30870000       0.22140000       2.26270000
C        2.47570000       0.94950000       2.15810000
C        2.77600000       1.46930000       3.44740000
C        1.78790000       1.04430000       4.30380000
N        0.90560000       0.28390000       3.57740000
H        0.79370000       2.00500000       0.23820000
H        0.19010000       1.62000000      -1.38900000
H       -0.95300000       1.98580000      -0.08830000
H       -0.92270000      -0.49920000      -0.37340000
H        0.06480000      -1.44830000       1.65320000
H        3.05280000       1.06070000       1.25410000
H        3.62580000       2.07780000       3.71580000
H        1.63870000       1.21060000       5.35850000
H        0.07690000      -0.14940000       3.94640000
