16
Properties=species:S:1:pos:R:3 gdb_26962=T pbc="F F F"
N        0.25470000       1.33270000       0.57220000
C        0.01140000       0.04290000       0.13050000
C       -1.09490000      -0.67530000      -0.21490000
N       -0.69480000      -1.99350000      -0.45760000
C        0.57750000      -1.99720000      -0.27030000
O        1.09250000      -0.78960000       0.09640000
C       -2.50510000      -0.26510000      -0.31950000
C       -3.41000000      -0.94080000      -1.28890000
N       -3.56730000      -1.17760000       0.15390000
H        1.09030000       1.74140000       0.17090000
H       -0.53810000       1.94460000       0.43660000
H        1.27860000      -2.80970000      -0.36910000
H       -2.69720000       0.77910000      -0.08030000
H       -4.21830000      -0.38340000      -1.75480000
H       -2.97350000      -1.72820000      -1.89610000
H       -3.12950000      -2.06800000       0.38580000
