19
Properties=species:S:1:pos:R:3 gdb_38934=T pbc="F F F"
C        0.12880000       1.55020000       0.39500000
C        1.56860000       1.48650000      -0.14500000
O        2.50580000       0.98810000       0.83860000
C        2.49400000      -0.34740000       0.25760000
C        2.21510000      -1.46180000       1.27280000
C        0.74470000      -1.88670000       1.21180000
O       -0.11290000      -0.75910000       1.23040000
C       -0.03920000       0.03840000       0.06380000
C        1.34190000       0.04900000      -0.67780000
H        0.02700000       1.80800000       1.45040000
H       -0.52100000       2.18780000      -0.21160000
H        1.97310000       2.32210000      -0.72240000
H        3.43770000      -0.51980000      -0.27550000
H        2.85800000      -2.32930000       1.08710000
H        2.45550000      -1.07590000       2.26860000
H        0.56340000      -2.49620000       0.31090000
H        0.47010000      -2.49390000       2.07890000
H       -0.88770000      -0.19380000      -0.59340000
H        1.36150000      -0.25430000      -1.72280000
