15
Properties=species:S:1:pos:R:3 gdb_2190=T pbc="F F F"
C       -0.26810000       1.49310000      -0.05340000
C        0.07270000       0.02200000       0.01500000
O        1.25330000      -0.31470000      -0.79920000
C        1.98390000      -0.67560000       0.31160000
N        3.19360000      -0.98470000       0.43630000
C        0.81650000      -0.50150000       1.27970000
N        0.91450000       0.36240000       2.43450000
H        0.59070000       2.11500000       0.21500000
H       -0.58320000       1.76490000      -1.06490000
H       -1.08330000       1.71790000       0.64050000
H       -0.77140000      -0.59700000      -0.30310000
H        3.68080000      -0.95880000      -0.46160000
H        0.42160000      -1.46950000       1.59960000
H        1.28510000      -0.15730000       3.22270000
H        1.57040000       1.11790000       2.26250000
