17
Properties=species:S:1:pos:R:3 gdb_36457=T pbc="F F F"
N        0.13290000      -1.18140000      -0.46250000
C        0.06790000      -0.03500000      -0.33630000
C       -0.00860000       1.41320000      -0.15720000
C        1.36290000       2.04210000       0.11740000
O        2.22770000       1.98740000      -1.03080000
C        2.41670000       3.42540000      -1.04540000
C        1.45050000       3.57140000       0.12390000
C        0.41030000       4.57680000       0.42330000
N        1.63180000       4.46880000       1.24810000
H       -0.44250000       1.86620000      -1.05430000
H       -0.68290000       1.62470000       0.68160000
H        1.82550000       1.56080000       0.99100000
H        3.45020000       3.70960000      -0.81770000
H        2.11180000       3.86770000      -2.00050000
H        0.34060000       5.48230000      -0.17340000
H       -0.53570000       4.23570000       0.83760000
H        1.43330000       3.99750000       2.12810000
