24
Properties=species:S:1:pos:R:3 gdb_118135=T pbc="F F F"
C       -1.10930000       0.79120000      -2.32120000
O        0.25190000       0.56600000      -2.63510000
C        0.50920000      -0.60580000      -3.37740000
C        0.67430000      -1.88720000      -2.53860000
C        1.66120000      -1.67430000      -1.38930000
N       -0.62360000      -2.30510000      -2.00570000
C       -1.51810000      -3.06380000      -2.87240000
C       -0.89940000      -3.70620000      -1.67670000
C        0.10360000      -4.83030000      -1.83020000
H       -1.72780000       0.81820000      -3.23270000
H       -1.50790000       0.02260000      -1.65050000
H       -1.16270000       1.76970000      -1.83580000
H       -0.27180000      -0.76340000      -4.13880000
H        1.45480000      -0.42660000      -3.90360000
H        1.09020000      -2.63950000      -3.23430000
H        1.78590000      -2.58800000      -0.80240000
H        2.64220000      -1.38170000      -1.77690000
H        1.30350000      -0.88040000      -0.73040000
H       -2.56210000      -2.75990000      -2.87840000
H       -1.13590000      -3.38040000      -3.84390000
H       -1.51970000      -3.80280000      -0.78610000
H        0.69330000      -4.74630000      -2.74610000
H        0.79480000      -4.86950000      -0.98160000
H       -0.42550000      -5.78870000      -1.86690000
