12
Properties=species:S:1:pos:R:3 gdb_76=T pbc="F F F"
C       -0.09160000       1.37540000      -0.00730000
O       -0.06960000      -0.04830000      -0.11150000
C        0.68110000      -0.56140000      -1.10730000
C        0.60410000      -2.06700000      -1.08770000
N        1.32650000       0.19270000      -1.89970000
H        0.91460000       1.76840000       0.16260000
H       -0.48560000       1.82620000      -0.92240000
H       -0.73970000       1.60010000       0.84110000
H       -0.43430000      -2.39240000      -1.20330000
H        1.20630000      -2.50050000      -1.88750000
H        0.95650000      -2.44980000      -0.12500000
H        1.83500000      -0.36100000      -2.58490000
