16
Properties=species:S:1:pos:R:3 gdb_84972=T pbc="F F F"
C       -0.02610000       1.47520000      -0.10230000
C       -0.11040000      -0.03580000       0.13870000
O        0.13780000      -0.67040000      -1.11520000
C        0.88830000      -1.79240000      -1.24640000
N        0.87000000      -2.40050000      -2.35410000
C        1.76320000      -2.23700000      -0.07950000
O        2.49430000      -3.19740000      -0.21440000
C        1.65690000      -1.47250000       1.16300000
C        0.77410000      -0.47430000       1.25870000
H        0.99700000       1.76430000      -0.35690000
H       -0.68380000       1.74730000      -0.93040000
H       -0.33840000       2.02380000       0.79100000
H       -1.14850000      -0.27910000       0.42090000
H        1.52300000      -3.18450000      -2.28320000
H        2.29000000      -1.77950000       1.98860000
H        0.64770000       0.07400000       2.18930000
