16
Properties=species:S:1:pos:R:3 gdb_49858=T pbc="F F F"
O       -0.21400000       0.00210000       0.01390000
C       -0.09090000       1.19860000       0.03550000
C        1.24260000       1.92300000      -0.03540000
N        2.37170000       1.03490000      -0.16300000
C        3.23430000       1.30470000      -1.20600000
O        4.25680000       0.70890000      -1.45090000
C        2.63960000       2.46540000      -1.96530000
C        1.30430000       2.15800000      -2.60990000
C        1.35010000       2.83440000      -1.26850000
H       -0.96840000       1.87820000       0.12000000
H        1.30800000       2.54380000       0.87510000
H        2.41000000       0.15270000       0.32250000
H        3.30990000       3.18560000      -2.41450000
H        1.02160000       2.76750000      -3.46040000
H        0.98660000       1.12170000      -2.66860000
H        1.02760000       3.86260000      -1.17150000
