16
Properties=species:S:1:pos:R:3 gdb_64753=T pbc="F F F"
O        0.01900000       1.44370000       0.01950000
C        0.02990000       0.04470000      -0.00810000
C        0.88580000      -0.55150000       1.12840000
C        2.23520000      -0.00130000       1.12730000
C        3.32490000       0.50570000       1.10820000
C       -1.38970000      -0.54300000      -0.14420000
O       -1.02430000      -1.16010000      -1.41790000
C        0.23670000      -0.60020000      -1.38430000
N        1.17250000      -0.62130000      -2.21470000
H        0.93930000       1.73770000      -0.01620000
H        0.39270000      -0.31560000       2.07990000
H        0.91560000      -1.64360000       1.03770000
H        4.30150000       0.92290000       1.08950000
H       -1.68930000      -1.29620000       0.58840000
H       -2.16520000       0.21360000      -0.27570000
H        0.92260000      -1.14560000      -3.05530000
