23
Properties=species:S:1:pos:R:3 gdb_118706=T pbc="F F F"
C       -0.69770000       1.61520000      -0.50390000
C       -0.34530000       0.17280000      -0.17700000
O       -1.48400000      -0.62760000      -0.44160000
C       -1.36910000      -2.00530000      -0.12460000
C       -0.52190000      -2.69050000      -1.19430000
C       -1.21040000      -2.37210000       1.39830000
C       -2.63280000      -1.76700000       1.61290000
C       -2.73520000      -2.62320000       0.31320000
C       -1.93550000      -3.71320000       1.08460000
H        0.16010000       2.26930000      -0.32000000
H       -0.98740000       1.70880000      -1.55450000
H       -1.53450000       1.95690000       0.11210000
H        0.51520000      -0.14940000      -0.78310000
H       -0.05020000       0.07980000       0.88000000
H        0.51500000      -2.34170000      -1.15830000
H       -0.50060000      -3.77670000      -1.10480000
H       -0.92280000      -2.43600000      -2.18030000
H       -0.32900000      -2.23880000       2.02830000
H       -3.18170000      -2.15040000       2.47640000
H       -2.74370000      -0.69110000       1.50170000
H       -3.61310000      -2.76650000      -0.31900000
H       -1.40290000      -4.47450000       0.51570000
H       -2.46110000      -4.16300000       1.92990000
