18
Properties=species:S:1:pos:R:3 gdb_19483=T pbc="F F F"
O        0.40230000      -0.07400000      -1.41890000
C        0.00250000       0.09430000      -0.06310000
C       -1.37900000      -0.51320000       0.07300000
C       -1.50000000      -2.07580000      -0.01320000
C       -1.11130000      -2.11390000       1.50020000
C       -1.94770000      -0.81250000       1.49000000
O       -3.27420000      -1.28290000       1.19790000
C       -3.02170000      -2.20990000       0.11050000
H        1.25340000       0.35810000      -1.53670000
H        0.72700000      -0.37380000       0.61860000
H       -0.04870000       1.16240000       0.20390000
H       -2.06950000       0.03940000      -0.57210000
H       -0.99050000      -2.65970000      -0.77740000
H       -1.49510000      -2.93610000       2.10890000
H       -0.04760000      -1.96860000       1.68360000
H       -1.98700000      -0.09190000       2.30620000
H       -3.56390000      -1.89090000      -0.78720000
H       -3.35410000      -3.21610000       0.39160000
