22
Properties=species:S:1:pos:R:3 gdb_77393=T pbc="F F F"
C       -0.17050000       1.61730000      -0.02080000
C       -0.01370000       0.10580000       0.00210000
C        1.21450000      -0.54600000      -0.65350000
C        1.54880000      -0.66490000      -2.11130000
C        2.16590000      -0.22590000       0.54990000
C        2.53510000      -1.70020000       0.62670000
N        1.06080000      -1.80890000       0.25270000
C        0.75850000      -0.56600000       1.14910000
C        0.35990000      -0.71720000       2.58770000
H        0.76890000       2.12560000       0.22240000
H       -0.49160000       1.96600000      -1.00830000
H       -0.92420000       1.94700000       0.70250000
H       -0.95220000      -0.40950000      -0.24110000
H        1.67710000       0.32620000      -2.56010000
H        2.47470000      -1.22760000      -2.26950000
H        0.74400000      -1.18000000      -2.64610000
H        2.77860000       0.66770000       0.71480000
H        3.21180000      -2.10850000      -0.13080000
H        2.77250000      -2.12790000       1.60610000
H        1.10220000      -1.28770000       3.15530000
H        0.25400000       0.26370000       3.06400000
H       -0.59950000      -1.23910000       2.66450000
