19
Properties=species:S:1:pos:R:3 gdb_99174=T pbc="F F F"
C       -0.14990000       1.51300000      -0.04290000
N        0.10410000       0.08420000      -0.00560000
C        0.64660000      -0.54970000      -1.10350000
O        1.09050000       0.04670000      -2.06950000
N        0.64950000      -1.93230000      -1.00380000
C        1.31030000      -2.74800000      -1.98150000
C        2.51850000      -3.62350000      -1.56320000
O        1.91480000      -4.79100000      -2.15390000
C        0.66690000      -4.10100000      -2.36360000
H        0.57570000       1.96170000      -0.72130000
H       -1.15670000       1.75560000      -0.40830000
H       -0.02530000       1.94140000       0.95570000
H       -0.47790000      -0.46410000       0.60770000
H        0.47960000      -2.34430000      -0.09900000
H        1.52170000      -2.10470000      -2.83400000
H        3.49140000      -3.38680000      -2.00750000
H        2.63650000      -3.72370000      -0.47320000
H       -0.11370000      -4.43230000      -1.66240000
H        0.29650000      -4.21180000      -3.38860000
