11
Properties=species:S:1:pos:R:3 gdb_130731=T pbc="F F F"
O        0.03280000       0.20650000      -0.82320000
C        0.05250000       1.24570000      -0.22360000
N       -1.18410000       1.84990000       0.15460000
N       -1.55710000       3.09190000       0.53670000
N       -0.83830000       4.09920000       0.34010000
C        0.45740000       4.07260000      -0.25410000
O        0.78490000       4.87750000      -1.08350000
C        1.41560000       3.06900000       0.32690000
N        1.22200000       1.81360000       0.30290000
H       -1.96840000       1.20920000       0.14680000
H        2.34290000       3.45250000       0.75520000
