13
Properties=species:S:1:pos:R:3 gdb_25259=T pbc="F F F"
O       -0.02820000      -0.08030000       0.00390000
C        0.02870000       1.12690000       0.00900000
N       -1.04720000       2.01060000       0.02850000
C       -0.72050000       3.43940000       0.03060000
C        0.77320000       3.35680000       0.00920000
C        1.16810000       2.06940000      -0.00250000
O        2.52330000       2.02820000      -0.02180000
C        2.86330000       3.35040000      -0.02030000
N        1.87080000       4.19210000      -0.00230000
H       -1.98920000       1.65770000       0.03970000
H       -1.13060000       3.95290000      -0.84840000
H       -1.10560000       3.94460000       0.92550000
H        3.91950000       3.56910000      -0.03420000
