16
Properties=species:S:1:pos:R:3 gdb_29652=T pbc="F F F"
C       -0.02470000       1.44330000       0.04570000
N       -0.00880000      -0.00220000       0.05640000
C       -0.00260000      -0.77860000      -1.11180000
O       -0.00450000      -0.36860000      -2.25930000
N        0.00880000      -2.07900000      -0.65270000
C        0.06990000      -2.11830000       0.76910000
N        0.08390000      -3.25130000       1.59320000
C        0.04120000      -0.82880000       1.16480000
O        0.03500000      -0.28470000       2.39810000
H        0.87090000       1.85360000       0.52270000
H       -0.05040000       1.74560000      -1.00240000
H       -0.90700000       1.83360000       0.56220000
H        0.14580000      -2.85550000      -1.27510000
H       -0.73840000      -3.83940000       1.49210000
H        0.90750000      -3.83380000       1.47580000
H        0.06100000      -1.02560000       3.01870000
