19
Properties=species:S:1:pos:R:3 gdb_74075=T pbc="F F F"
C        0.01390000       1.49310000       0.07920000
C       -0.00910000       0.00350000      -0.01590000
C        0.02060000      -0.75040000      -1.13060000
C       -0.03360000      -2.19140000      -0.78850000
O       -0.10050000      -3.13350000      -1.54680000
C       -0.02860000      -2.28700000       0.73290000
C       -0.78180000      -3.42560000       1.37190000
C        1.22660000      -1.71720000       1.37370000
C       -0.01660000      -0.85940000       1.21130000
H        0.87860000       1.82990000       0.66440000
H        0.05290000       1.96460000      -0.90530000
H       -0.87670000       1.86100000       0.60400000
H        0.08600000      -0.39370000      -2.15050000
H       -0.41420000      -4.37990000       0.98320000
H       -0.66230000      -3.42460000       2.45940000
H       -1.85180000      -3.36840000       1.14630000
H        1.46340000      -2.08180000       2.36910000
H        2.08720000      -1.48680000       0.75440000
H       -0.55500000      -0.53860000       2.09650000
