18
Properties=species:S:1:pos:R:3 gdb_59224=T pbc="F F F"
C        0.10240000       1.53940000      -0.19220000
C        0.11980000       0.02060000      -0.01410000
O        0.87320000      -0.35250000       1.14090000
C       -1.30400000      -0.55130000       0.04210000
C       -1.59800000      -2.05690000       0.02510000
C       -1.13100000      -2.74540000       1.23560000
N       -2.41310000      -1.96690000       1.32440000
C       -2.00760000      -0.57830000       1.41240000
O       -2.21350000       0.22220000       2.27360000
H        1.12260000       1.93090000      -0.16500000
H       -0.35410000       1.82180000      -1.14610000
H       -0.47700000       2.01040000       0.61020000
H        0.65190000      -0.44360000      -0.85280000
H        0.54620000       0.17590000       1.87950000
H       -1.94680000      -0.03530000      -0.68010000
H       -2.01750000      -2.58550000      -0.82250000
H       -1.30870000      -3.81280000       1.31410000
H       -0.25880000      -2.37430000       1.76110000
