16
Properties=species:S:1:pos:R:3 gdb_49292=T pbc="F F F"
O       -0.09500000      -0.04170000      -0.20150000
C       -0.00660000       1.16330000      -0.24420000
C        1.22030000       1.92380000       0.09230000
C        1.14600000       3.25520000      -0.00230000
C        2.19840000       4.26710000       0.31600000
O        3.55770000       3.92950000       0.06760000
C        4.13150000       2.79240000       0.55490000
N        3.69920000       1.63610000       0.78460000
C        2.39130000       1.08640000       0.54000000
H       -0.87140000       1.79630000      -0.54730000
H        0.19090000       3.68800000      -0.30050000
H        2.03030000       5.17000000      -0.27840000
H        2.09440000       4.56210000       1.37270000
H        5.19100000       2.99600000       0.71460000
H        2.07930000       0.54980000       1.44720000
H        2.51960000       0.27630000      -0.19080000
