20
Properties=species:S:1:pos:R:3 gdb_11954=T pbc="F F F"
C        0.03920000       1.54620000      -0.22000000
C        0.01800000       0.04820000       0.11850000
C       -1.36720000      -0.53480000       0.12640000
C       -2.11050000      -0.99610000      -1.12050000
C       -1.89870000      -1.95230000       0.01770000
C       -1.28400000      -3.31190000      -0.04490000
O       -2.90380000      -1.72590000       1.02010000
C       -2.39930000      -0.38260000       1.24140000
H        1.06150000       1.93660000      -0.22140000
H       -0.39630000       1.73030000      -1.20730000
H       -0.53730000       2.12530000       0.50950000
H        0.63370000      -0.49750000      -0.60750000
H        0.48820000      -0.11190000       1.09800000
H       -3.11290000      -0.63790000      -1.34240000
H       -1.47470000      -1.14930000      -1.98830000
H       -0.48080000      -3.33800000      -0.78700000
H       -0.87420000      -3.60420000       0.92700000
H       -2.03350000      -4.05740000      -0.33480000
H       -1.95230000      -0.29890000       2.24030000
H       -3.17910000       0.38000000       1.12330000
