18
Properties=species:S:1:pos:R:3 gdb_26128=T pbc="F F F"
C        0.01030000       1.32420000       1.06300000
C       -0.19860000       0.44200000      -0.16700000
O        0.84820000      -0.53720000      -0.30140000
C       -1.53020000      -0.24200000      -0.18850000
C       -1.98560000      -1.30280000      -0.92680000
N       -1.28800000      -1.99540000      -1.92060000
C       -3.35400000      -1.50190000      -0.53950000
C       -3.62450000      -0.55020000       0.39180000
O       -2.54160000       0.22550000       0.62020000
H        1.00680000       1.77060000       1.02420000
H       -0.73720000       2.12080000       1.10390000
H       -0.07860000       0.73720000       1.98360000
H       -0.07170000       1.05920000      -1.06710000
H        0.76670000      -1.13200000       0.45420000
H       -0.28660000      -1.88460000      -1.81270000
H       -1.53660000      -2.97380000      -1.97680000
H       -4.03500000      -2.25000000      -0.91550000
H       -4.50570000      -0.30890000       0.96350000
