21
Properties=species:S:1:pos:R:3 gdb_120462=T pbc="F F F"
C        0.77320000       1.30020000       0.27660000
C        0.30130000      -0.08210000      -0.13760000
O       -1.00800000      -0.28070000       0.38920000
C       -1.54910000      -1.52860000       0.08920000
C       -2.97650000      -1.79780000       0.63870000
C       -3.39600000      -2.44250000      -0.72210000
C       -4.74440000      -2.11760000      -1.34880000
C       -2.14720000      -1.76810000      -1.32110000
O       -1.86260000      -1.38290000      -2.41980000
H        1.78280000       1.48490000      -0.10220000
H        0.10660000       2.06860000      -0.12470000
H        0.78770000       1.39260000       1.36640000
H        0.28290000      -0.18100000      -1.23050000
H        0.97780000      -0.85930000       0.25640000
H       -0.85670000      -2.34840000       0.35110000
H       -3.04800000      -2.41910000       1.53150000
H       -3.49200000      -0.84900000       0.80770000
H       -3.23760000      -3.52810000      -0.69190000
H       -4.91120000      -1.03610000      -1.37770000
H       -4.78850000      -2.48830000      -2.37710000
H       -5.56410000      -2.57360000      -0.78500000
