15
Properties=species:S:1:pos:R:3 gdb_69803=T pbc="F F F"
O        0.22520000       1.29530000      -0.37020000
C        0.04490000      -0.05530000      -0.13000000
C       -0.56400000      -0.90880000      -1.21290000
C       -1.30480000      -0.73340000       0.09360000
C       -1.07740000      -1.84200000       1.11640000
O       -0.16130000      -2.84810000       0.68130000
C        0.32840000      -1.83350000       1.57220000
C        0.97550000      -0.64000000       0.90140000
O        1.95950000      -0.05570000       1.29300000
H        0.99990000       1.54960000       0.15350000
H       -0.93240000      -0.32280000      -2.04810000
H       -0.15080000      -1.87830000      -1.45580000
H       -2.22360000      -0.16190000       0.12740000
H       -1.89030000      -2.18810000       1.74750000
H        0.69240000      -2.16310000       2.53990000
