18
Properties=species:S:1:pos:R:3 gdb_27284=T pbc="F F F"
N        0.05630000       1.41830000       0.12590000
C       -0.03360000       0.02240000       0.02060000
C       -1.14760000      -0.78390000      -0.00500000
C       -2.64360000      -0.81110000       0.04470000
C       -2.95200000      -2.27650000      -0.38580000
C       -1.69120000      -3.09410000      -0.00590000
N       -0.65270000      -2.07690000      -0.05180000
C        0.69670000      -2.00590000      -0.03740000
N        1.10520000      -0.74680000      -0.00740000
H        0.99360000       1.71870000      -0.11300000
H       -0.61400000       1.90440000      -0.45650000
H       -3.02540000      -0.60960000       1.05500000
H       -3.12380000      -0.08920000      -0.62340000
H       -3.85520000      -2.67770000       0.07910000
H       -3.09030000      -2.31490000      -1.47020000
H       -1.77010000      -3.51720000       1.00330000
H       -1.48650000      -3.91100000      -0.70300000
H        1.33720000      -2.87400000      -0.06430000
