13
Properties=species:S:1:pos:R:3 gdb_23988=T pbc="F F F"
C        0.14080000      -1.16460000      -0.00450000
C        0.02640000       0.03450000       0.00310000
C       -0.09560000       1.43740000       0.01180000
C       -1.22510000       2.25210000       0.03200000
C       -0.79110000       3.58860000       0.03240000
C        0.59830000       3.57490000       0.01250000
N        1.00240000       2.26080000       0.00020000
C        1.52440000       4.63910000       0.00450000
N        2.29360000       5.50680000      -0.00220000
H        0.23310000      -2.22270000      -0.01110000
H       -2.24270000       1.89650000       0.04480000
H       -1.40200000       4.47690000       0.04560000
H        1.95830000       1.94590000      -0.01510000
