14
Properties=species:S:1:pos:R:3 gdb_18175=T pbc="F F F"
C        0.07810000      -1.14340000       0.02790000
C       -0.00600000       0.05580000       0.01880000
C       -0.06650000       1.47840000       0.01330000
N       -1.15320000       2.14870000       0.09650000
C       -0.79250000       3.57380000       0.05490000
C        0.73480000       3.60230000       0.03310000
C        1.46280000       2.94210000       1.14160000
N        1.17740000       2.19360000      -0.11310000
H        0.14000000      -2.20400000       0.03350000
H       -1.21340000       4.02700000      -0.85080000
H       -1.23940000       4.09390000       0.90980000
H        1.24870000       4.32650000      -0.58980000
H        2.51380000       3.15670000       1.30560000
H        0.90340000       2.65340000       2.02790000
