21
Properties=species:S:1:pos:R:3 gdb_118020=T pbc="F F F"
C       -0.51130000       1.40520000      -0.40950000
O       -0.66870000       0.01290000      -0.55000000
C       -1.01060000      -0.62100000       0.66250000
C       -1.10500000      -2.13330000       0.45900000
O       -1.06260000      -2.67090000       1.76860000
C       -2.39110000      -2.59230000      -0.28880000
C       -2.42750000      -2.17120000      -1.77100000
C       -2.52050000      -4.04490000      -0.15990000
C       -2.57830000      -5.24090000      -0.03610000
H       -0.23660000       1.80420000      -1.38890000
H       -1.44150000       1.89050000      -0.07460000
H        0.28260000       1.65210000       0.31260000
H       -0.24110000      -0.43780000       1.42810000
H       -1.96460000      -0.23200000       1.05720000
H       -0.23190000      -2.45360000      -0.13220000
H       -1.26800000      -3.61160000       1.69840000
H       -3.24070000      -2.13250000       0.23530000
H       -2.34640000      -1.08800000      -1.86080000
H       -1.59310000      -2.62110000      -2.31720000
H       -3.35750000      -2.50750000      -2.23650000
H       -2.65710000      -6.29610000       0.05630000
