14
Properties=species:S:1:pos:R:3 gdb_131689=T pbc="F F F"
O       -0.05120000       1.42450000       0.00750000
C        0.02340000       0.01070000       0.00190000
C       -1.37670000      -0.51600000       0.01180000
C       -2.52690000       0.20370000       0.02330000
O       -3.59220000      -0.62050000       0.02970000
N       -3.16740000      -1.92370000       0.02250000
C       -1.84840000      -1.86720000       0.01190000
C       -1.02870000      -3.10260000       0.00170000
O       -1.46230000      -4.22550000       0.00300000
H        0.84360000       1.77650000       0.00150000
H        0.55670000      -0.36060000      -0.88850000
H        0.57170000      -0.36690000       0.88040000
H       -2.73530000       1.26010000       0.02810000
H        0.06680000      -2.90620000      -0.00800000
