18
Properties=species:S:1:pos:R:3 gdb_103023=T pbc="F F F"
C        0.84170000      -0.47910000       1.32870000
C        0.09930000      -0.03520000       0.06250000
C       -1.32720000      -0.59390000      -0.02310000
C       -2.15390000      -0.04420000       1.05270000
N       -2.73020000       0.44010000       1.93010000
C       -2.09770000      -0.73890000      -1.38450000
C       -1.18750000      -1.92010000      -1.79610000
C       -1.63060000      -2.10700000      -0.32680000
O       -2.99640000      -1.71260000      -0.73090000
H        1.83910000      -0.03240000       1.36410000
H        0.30280000      -0.17420000       2.23030000
H        0.96170000      -1.56730000       1.35850000
H        0.03490000       1.05860000       0.03650000
H        0.66690000      -0.33170000      -0.82260000
H       -2.55330000       0.04670000      -1.98660000
H       -1.66140000      -2.61620000      -2.48710000
H       -0.13770000      -1.74490000      -2.03080000
H       -1.52810000      -2.96320000       0.33890000
