16
Properties=species:S:1:pos:R:3 gdb_22093=T pbc="F F F"
N        0.53540000       1.14980000       0.66600000
C        0.16390000       0.01380000      -0.00150000
N        0.93820000      -0.95780000      -0.31770000
H        1.90200000      -0.82130000      -0.01630000
H       -0.08300000      -1.89310000      -1.51580000
C       -1.31500000      -0.04810000      -0.35200000
C       -1.72070000      -0.77600000      -1.61730000
C       -2.96510000      -0.38070000      -2.27170000
O       -3.47480000      -0.88440000      -3.24750000
N       -0.96690000      -1.77430000      -2.06550000
O       -1.15380000      -2.50750000      -3.05390000
H        1.42930000       1.17460000       1.13000000
H       -0.16640000       1.77290000       1.02820000
H       -1.81690000      -0.49200000       0.52280000
H       -1.70510000       0.97350000      -0.42050000
H       -3.44290000       0.49440000      -1.76630000
