19
Properties=species:S:1:pos:R:3 gdb_40222=T pbc="F F F"
C       -0.21500000       1.47880000       0.14170000
C        1.17400000       0.95660000      -0.12920000
C        0.03300000      -0.00400000       0.00060000
C       -0.14460000      -0.95710000       1.17120000
O       -1.30730000      -1.71220000       0.84530000
C       -1.27050000      -1.95970000      -0.55190000
C       -0.49340000      -0.79370000      -1.17580000
C       -0.73310000      -0.27290000      -2.52220000
O        0.39100000      -1.12000000      -2.25530000
H       -0.43650000       1.85940000       1.13390000
H       -0.73910000       1.99040000      -0.65840000
H        1.59750000       1.08700000      -1.11960000
H        1.90290000       0.99120000       0.67420000
H        0.73190000      -1.61900000       1.27540000
H       -0.32170000      -0.45920000       2.12820000
H       -0.74050000      -2.89620000      -0.78590000
H       -2.30120000      -2.04120000      -0.90830000
H       -1.51730000      -0.71080000      -3.13970000
H       -0.49060000       0.76240000      -2.76270000
