17
Properties=species:S:1:pos:R:3 gdb_50344=T pbc="F F F"
O       -0.70710000       0.92090000      -0.52260000
C        0.16620000       1.02110000       0.30060000
C        1.36590000       1.93600000       0.18650000
C        1.41420000       2.80760000      -1.09780000
C        1.34540000       4.22000000      -0.48410000
C       -0.04730000       4.43980000       0.14020000
O        0.02360000       3.60360000       1.31420000
C        1.33680000       3.06000000       1.27360000
O        2.13910000       4.06840000       0.71340000
H        0.13680000       0.41900000       1.23640000
H        2.26970000       1.33070000       0.32300000
H        2.35100000       2.66900000      -1.64020000
H        0.57870000       2.58370000      -1.76340000
H        1.72980000       5.03810000      -1.09000000
H       -0.21070000       5.47850000       0.44570000
H       -0.86550000       4.10960000      -0.50650000
H        1.66310000       2.79790000       2.27930000
