17
Properties=species:S:1:pos:R:3 gdb_81256=T pbc="F F F"
O        0.02730000       1.44060000      -0.09580000
C        0.12310000       0.06070000      -0.02820000
C        0.01270000      -0.62140000       1.34940000
O       -1.43920000      -0.17250000       1.38100000
C       -1.20260000      -0.77190000       0.03740000
C       -2.00070000      -1.34670000      -1.09660000
O       -1.11770000      -2.40330000      -1.53290000
C       -0.06840000      -2.71520000      -0.56240000
C       -0.47800000      -1.94210000       0.68150000
H       -0.67910000       1.67570000       0.52390000
H        0.90950000      -0.26690000      -0.70740000
H        0.56480000      -0.46590000       2.27680000
H       -2.96660000      -1.74960000      -0.76390000
H       -2.15840000      -0.66820000      -1.94010000
H       -0.07080000      -3.79770000      -0.40820000
H        0.89980000      -2.43070000      -0.98750000
H       -1.12530000      -2.50650000       1.35400000
