21
Properties=species:S:1:pos:R:3 gdb_46353=T pbc="F F F"
O        0.21190000       0.06730000      -0.26360000
C        0.02370000       1.23060000      -0.05100000
C       -1.22070000       2.06740000       0.28980000
C       -0.25390000       3.19150000       0.77150000
C        0.96490000       2.43770000       0.14070000
C        2.23130000       2.22050000       0.94450000
C        3.39610000       1.40810000       0.30930000
C        4.39360000       2.39020000       0.98060000
C        3.22640000       3.40170000       1.14430000
H       -1.78680000       2.33250000      -0.60930000
H       -1.91100000       1.62870000       1.01470000
H       -0.45040000       4.19290000       0.38730000
H       -0.18420000       3.23970000       1.86110000
H        1.21450000       2.85800000      -0.84350000
H        1.97210000       1.78870000       1.91900000
H        3.46400000       0.34660000       0.55380000
H        3.40080000       1.51160000      -0.78050000
H        4.74280000       2.01630000       1.94740000
H        5.26230000       2.70920000       0.40010000
H        3.18120000       4.10230000       0.30370000
H        3.16310000       3.97220000       2.07430000
