18
Properties=species:S:1:pos:R:3 gdb_38560=T pbc="F F F"
C       -0.01870000       1.58970000       0.10130000
C        1.53340000       1.34310000      -0.03920000
C        1.83900000       0.60080000       1.26540000
N        0.90280000      -0.54060000       1.09360000
C        1.40460000      -1.27100000      -0.15020000
C        0.12710000      -2.05330000      -0.52390000
C       -0.86090000      -1.15770000      -0.39090000
C       -0.07040000       0.06850000      -0.00360000
C        1.19750000       0.07150000      -0.90430000
H       -0.38570000       2.08710000       1.00390000
H       -0.44060000       2.06200000      -0.78980000
H        2.20080000       2.13160000      -0.38510000
H        2.87260000       0.25070000       1.34690000
H        1.58880000       1.16720000       2.16760000
H        2.34360000      -1.82490000      -0.07290000
H        0.07860000      -3.10330000      -0.77290000
H       -1.92860000      -1.26720000      -0.50570000
H        1.12580000       0.15860000      -1.98940000
