19
Properties=species:S:1:pos:R:3 gdb_82994=T pbc="F F F"
O        0.01820000       1.46350000      -0.09260000
C        0.01390000       0.06250000       0.04260000
C        0.14300000      -0.60360000       1.45090000
C       -0.91450000       0.19630000       2.23590000
C       -2.11910000      -0.11350000       1.30250000
O       -2.79310000      -1.27870000       1.78860000
C       -1.83190000      -2.33990000       1.71320000
C       -0.71320000      -1.77490000       0.83890000
C       -1.36390000      -0.60570000       0.03610000
H        0.93070000       1.76920000      -0.08110000
H        0.68380000      -0.41030000      -0.68750000
H        1.11240000      -0.78250000       1.91800000
H       -1.10530000      -0.16950000       3.24710000
H       -0.66400000       1.25790000       2.27480000
H       -2.85780000       0.67630000       1.17820000
H       -1.48310000      -2.62100000       2.71690000
H       -2.30960000      -3.21800000       1.26220000
H       -0.14140000      -2.50420000       0.26560000
H       -1.95140000      -0.75710000      -0.86820000
