16
Properties=species:S:1:pos:R:3 gdb_90609=T pbc="F F F"
O       -0.09840000       1.45090000       0.06380000
C       -0.00310000       0.04820000      -0.00550000
C        0.28390000      -0.68800000       1.34890000
N       -1.11370000      -1.22480000       1.34740000
C       -1.40610000      -0.62310000       0.00250000
C       -2.60610000       0.14930000       0.58640000
O       -3.83750000      -0.24640000       0.04050000
C       -2.13480000      -0.44420000       1.95670000
O       -2.40110000      -0.26330000       3.10880000
H        0.78770000       1.81620000       0.15630000
H        0.64120000      -0.27170000      -0.83420000
H        1.03120000      -1.48360000       1.29050000
H        0.49940000      -0.03630000       2.20030000
H       -1.63970000      -1.30980000      -0.81150000
H       -2.46830000       1.23820000       0.58380000
H       -4.53740000       0.17720000       0.54890000
