14
Properties=species:S:1:pos:R:3 gdb_5193=T pbc="F F F"
O       -0.08750000      -0.11640000      -0.02130000
C        0.00980000       1.08000000      -0.08670000
C        1.33210000       1.83510000      -0.14590000
C        1.32550000       2.88990000      -1.21310000
C        1.84660000       2.78950000      -2.46730000
O        1.62760000       3.92710000      -3.17590000
C        0.94530000       4.77360000      -2.36230000
C        0.72980000       4.19860000      -1.15190000
H       -0.89110000       1.73480000      -0.11090000
H        1.48180000       2.30020000       0.83890000
H        2.13220000       1.10510000      -0.29190000
H        2.38740000       2.01110000      -2.98030000
H        0.69730000       5.73260000      -2.78600000
H        0.22200000       4.64410000      -0.31010000
