14
Properties=species:S:1:pos:R:3 gdb_20343=T pbc="F F F"
C       -0.07110000       1.41600000       0.01040000
C        1.38010000       1.85490000      -0.00100000
C        2.19760000       0.78630000      -0.01470000
C        1.38640000      -0.42210000      -0.01360000
C        1.36440000      -1.80660000      -0.02070000
C       -0.01550000      -2.12010000      -0.00910000
N       -0.79660000      -1.03270000       0.00410000
N        0.08410000      -0.02520000       0.00100000
H       -0.60970000       1.75510000       0.90350000
H       -0.62660000       1.76490000      -0.86840000
H        1.67100000       2.89580000       0.00180000
H        3.27810000       0.80280000      -0.02500000
H        2.19920000      -2.48730000      -0.03240000
H       -0.47300000      -3.09890000      -0.00990000
