19
Properties=species:S:1:pos:R:3 gdb_49068=T pbc="F F F"
O       -0.81050000       1.23320000       0.61290000
C        0.16930000       0.94280000      -0.02590000
C        1.42540000       1.78140000      -0.08480000
C        1.80860000       2.48120000       1.21840000
C        2.63210000       3.70270000       0.76930000
C        1.93130000       4.16570000      -0.52430000
C        1.48590000       2.87110000      -1.21670000
C        2.59610000       1.97500000      -1.80120000
O        2.51510000       1.05090000      -0.69370000
H        0.21970000       0.02520000      -0.65420000
H        0.88270000       2.78610000       1.71810000
H        2.35220000       1.80770000       1.88650000
H        2.67860000       4.48690000       1.52910000
H        3.66140000       3.39560000       0.55510000
H        1.04820000       4.76630000      -0.27910000
H        2.57320000       4.77840000      -1.16590000
H        0.60440000       2.99130000      -1.84730000
H        2.35100000       1.48770000      -2.75270000
H        3.58950000       2.43380000      -1.88130000
