20
Properties=species:S:1:pos:R:3 gdb_107101=T pbc="F F F"
C       -0.01170000       1.55630000       0.30290000
C        0.01230000       0.04960000       0.00950000
C       -1.36400000      -0.53210000      -0.15190000
C       -2.21940000      -1.01500000       0.99820000
C       -1.84510000      -1.97910000      -0.09830000
N       -2.67000000      -1.74820000      -1.27560000
C       -2.25010000      -0.34070000      -1.40290000
C       -3.85600000      -2.30180000      -1.63740000
O       -4.64510000      -1.79920000      -2.40980000
H        1.00280000       1.95110000       0.41090000
H       -0.49990000       2.11020000      -0.50600000
H       -0.55880000       1.76740000       1.22720000
H        0.59610000      -0.13830000      -0.90100000
H        0.53150000      -0.47470000       0.82110000
H       -1.68410000      -1.15100000       1.93360000
H       -3.25330000      -0.69780000       1.10780000
H       -1.29800000      -2.90370000       0.04360000
H       -3.07240000       0.37870000      -1.34140000
H       -1.67780000      -0.16350000      -2.31930000
H       -4.00160000      -3.29890000      -1.17170000
