14
Properties=species:S:1:pos:R:3 gdb_48690=T pbc="F F F"
O       -0.83820000       0.95630000       0.39630000
C        0.24180000       0.87710000      -0.13360000
C        1.31380000       1.87250000       0.06840000
C        1.34670000       3.10240000       0.97600000
C        2.20410000       3.83610000      -0.12810000
C        3.52220000       4.33060000       0.23620000
N        4.56920000       4.72420000       0.52650000
C        2.15870000       2.53560000      -0.96770000
O        2.67030000       1.47860000      -0.19240000
H        0.51600000       0.05660000      -0.82960000
H        0.36830000       3.56200000       1.11340000
H        1.83440000       2.94860000       1.93850000
H        1.62830000       4.63340000      -0.60400000
H        2.17570000       2.43860000      -2.04710000
