17
Properties=species:S:1:pos:R:3 gdb_97132=T pbc="F F F"
C       -0.12140000       1.15980000       0.12090000
N       -0.19630000      -0.26390000      -0.18140000
C        0.58730000      -0.76040000      -1.01660000
O        1.58600000      -0.19720000      -1.79380000
C        1.98190000      -1.50700000      -2.30960000
C        0.82770000      -2.17070000      -1.54050000
O        1.26550000      -3.14490000      -0.61840000
C        0.35530000      -3.53840000       0.31130000
N        0.65920000      -4.46790000       1.10570000
H        0.70090000       1.67930000      -0.38360000
H       -1.06630000       1.63480000      -0.16430000
H       -0.01220000       1.28600000       1.20280000
H        1.93180000      -1.53370000      -3.39940000
H        2.97080000      -1.79600000      -1.94900000
H        0.01680000      -2.55630000      -2.16820000
H       -0.57850000      -2.96750000       0.28020000
H       -0.11340000      -4.64110000       1.74570000
