20
Properties=species:S:1:pos:R:3 gdb_14268=T pbc="F F F"
C        0.02940000       1.48260000      -0.35200000
C        1.52960000       1.49920000       0.05950000
C        1.27000000       0.21100000       0.89200000
C       -0.02880000      -0.01470000       0.06600000
C        0.13360000      -0.99220000      -1.09520000
C        1.29180000      -0.78210000      -2.03540000
C        2.24950000       0.14830000      -2.03940000
C        2.49700000       1.30380000      -1.10500000
H       -0.57930000       2.11200000       0.30300000
H       -0.20990000       1.72450000      -1.39180000
H        1.84850000       2.37340000       0.63510000
H        2.03180000      -0.57340000       0.85620000
H        1.05200000       0.43980000       1.93880000
H       -0.90940000      -0.30580000       0.64650000
H        0.20570000      -2.01400000      -0.69130000
H       -0.79200000      -0.99130000      -1.69170000
H        1.33290000      -1.52290000      -2.83360000
H        2.98540000       0.08250000      -2.84040000
H        2.52030000       2.22650000      -1.70540000
H        3.51800000       1.20390000      -0.70500000
