14
Properties=species:S:1:pos:R:3 gdb_35073=T pbc="F F F"
C       -0.07540000      -1.21700000       0.00470000
C       -0.06620000      -0.01600000       0.03820000
C       -0.01810000       1.43610000       0.03360000
N       -0.56570000       1.93090000       1.37290000
C        0.29120000       2.81780000       1.65700000
O        1.28600000       2.60560000       2.62260000
C        2.13140000       2.55490000       1.38630000
C        1.42380000       2.03280000       0.03130000
C        1.26270000       3.40760000       0.58400000
H       -0.09270000      -2.27860000      -0.01560000
H       -0.57320000       1.82030000      -0.83560000
H        3.19930000       2.52550000       1.56450000
H        2.10470000       1.80660000      -0.78550000
H        1.34280000       4.40270000       0.16960000
