16
Properties=species:S:1:pos:R:3 gdb_17039=T pbc="F F F"
O        0.02200000       1.36460000      -0.37510000
C       -0.01260000      -0.00480000      -0.10670000
C        0.08420000      -0.54620000       1.35790000
C       -1.39390000      -0.09370000       1.55650000
C       -1.36420000      -0.75970000       0.14420000
C       -0.52490000      -1.88980000       0.80280000
C        0.31670000      -2.83540000      -0.00800000
O        0.39630000      -2.85660000      -1.21150000
H       -0.57460000       1.83080000       0.21860000
H        0.65130000      -0.46470000      -0.83570000
H        0.91070000      -0.45150000       2.06340000
H       -1.96350000      -0.61290000       2.33140000
H       -1.59230000       0.98020000       1.61210000
H       -2.19420000      -0.89130000      -0.54940000
H       -1.04070000      -2.46050000       1.58430000
H        0.88180000      -3.57230000       0.61030000
