19
Properties=species:S:1:pos:R:3 gdb_6296=T pbc="F F F"
C        0.02290000       1.51700000      -0.08550000
C        0.06220000       0.00460000       0.13460000
O        0.65960000      -0.32150000       1.38620000
C       -1.33700000      -0.62100000      -0.02010000
N       -1.36460000      -2.07050000      -0.01480000
C       -1.22940000      -2.79050000       1.24460000
C       -1.58250000      -2.76710000      -1.16800000
O       -1.63700000      -3.97450000      -1.27010000
H        1.01850000       1.94130000       0.06620000
H       -0.31120000       1.76750000      -1.09720000
H       -0.66520000       1.99850000       0.62150000
H        0.72090000      -0.45780000      -0.60980000
H        0.18240000       0.15500000       2.07530000
H       -1.98910000      -0.24190000       0.78190000
H       -1.76750000      -0.27740000      -0.96750000
H       -2.00760000      -2.46970000       1.94920000
H       -1.35260000      -3.85180000       1.02950000
H       -0.25240000      -2.60620000       1.69550000
H       -1.71050000      -2.08820000      -2.03530000
