21
Properties=species:S:1:pos:R:3 gdb_119848=T pbc="F F F"
C        0.00410000       1.40740000      -0.05770000
O       -0.00520000       0.00260000       0.00200000
C        0.64220000      -0.59530000      -1.09550000
C        0.60070000      -2.08430000      -0.98230000
C        0.00270000      -2.81150000      -0.03400000
C        0.19530000      -4.29870000      -0.24560000
C        0.93430000      -4.37980000      -1.58160000
C        0.26170000      -3.81810000      -2.80660000
C        1.23200000      -2.95520000      -2.02210000
H        1.02960000       1.81070000      -0.06250000
H       -0.51420000       1.78340000      -0.95460000
H       -0.51530000       1.77630000       0.83000000
H        0.17050000      -0.27740000      -2.04490000
H        1.69410000      -0.25520000      -1.15680000
H       -0.57120000      -2.39660000       0.78440000
H        0.78770000      -4.74380000       0.56590000
H       -0.75790000      -4.84370000      -0.26130000
H        1.66700000      -5.16480000      -1.72700000
H        0.59210000      -4.20180000      -3.76670000
H       -0.79240000      -3.56190000      -2.75860000
H        2.17300000      -2.66760000      -2.48070000
