20
Properties=species:S:1:pos:R:3 gdb_88371=T pbc="F F F"
C       -1.20750000       1.28310000       0.67710000
C       -0.37070000       0.09870000       0.24050000
C        0.95920000       0.26930000      -0.45470000
C        0.90080000      -0.36760000       0.91660000
C        1.57570000       0.22790000       2.15120000
C        0.84470000      -0.16410000       3.44090000
O        2.89190000      -0.31100000       2.27210000
C        1.69750000       1.70620000       2.07770000
N        1.83950000       2.85190000       2.01720000
H       -0.59990000       2.12630000       1.00960000
H       -1.82560000       1.63080000      -0.15760000
H       -1.88500000       1.00960000       1.49380000
H       -0.97090000      -0.72930000      -0.12960000
H        1.20020000      -0.35420000      -1.30860000
H        1.34950000       1.28110000      -0.51480000
H        1.03320000      -1.44610000       0.94610000
H        0.76770000      -1.25340000       3.48340000
H        1.40540000       0.18320000       4.31140000
H       -0.15800000       0.26710000       3.46270000
H        3.34660000      -0.16370000       1.43410000
