12
Properties=species:S:1:pos:R:3 gdb_25219=T pbc="F F F"
O        0.11500000      -0.13030000       0.19570000
C        0.03100000       1.03090000      -0.05290000
O       -1.18450000       1.53730000      -0.45500000
C       -1.48550000       2.80830000      -0.81700000
C       -0.68970000       3.77690000      -1.30340000
N        0.66110000       3.75460000      -1.58950000
C        1.50180000       2.96300000      -1.04140000
C        1.25880000       1.96200000       0.04000000
O        2.06390000       1.77060000       0.91710000
H       -2.55370000       2.97140000      -0.73590000
H       -1.18980000       4.69770000      -1.58550000
H        2.54990000       3.04110000      -1.33400000
