13
Properties=species:S:1:pos:R:3 gdb_132038=T pbc="F F F"
O       -0.04360000       1.38100000       0.01100000
C        0.00410000       0.02540000       0.00360000
C        1.16540000      -0.66960000      -0.00710000
F        2.35810000      -0.06110000      -0.01100000
N        1.23210000      -2.03470000      -0.01470000
C        0.07490000      -2.76610000      -0.01190000
C       -1.13150000      -2.15220000      -0.00140000
C       -1.28230000      -0.69690000       0.00780000
O       -2.35820000      -0.11420000       0.01620000
H        0.85730000       1.72550000       0.00720000
H        2.13940000      -2.47050000      -0.02240000
H        0.20400000      -3.84060000      -0.01860000
H       -2.03980000      -2.74090000       0.00050000
