19
Properties=species:S:1:pos:R:3 gdb_38493=T pbc="F F F"
C        0.05490000       1.49990000      -0.01580000
C        1.35700000       0.73850000      -0.05200000
C        2.10330000       0.55160000       1.28720000
C        1.15180000      -0.33150000       2.07020000
C        0.34640000      -0.26560000       3.38330000
C       -0.93970000      -0.62970000       2.54710000
C       -0.04530000      -0.66470000       1.29020000
O        0.97870000      -1.64330000       1.52500000
C        0.02020000      -0.01050000      -0.04460000
H       -0.22080000       2.00930000       0.90360000
H       -0.25340000       2.02010000      -0.91610000
H        1.94140000       0.77860000      -0.96410000
H        3.07990000       0.07860000       1.14240000
H        2.27220000       1.50730000       1.79660000
H        0.65390000      -0.96830000       4.16100000
H        0.29480000       0.74170000       3.80440000
H       -1.44250000      -1.56800000       2.79060000
H       -1.67070000       0.18160000       2.53210000
H       -0.33910000      -0.51240000      -0.93660000
