17
Properties=species:S:1:pos:R:3 gdb_35698=T pbc="F F F"
N       -0.44120000      -0.85970000      -0.80140000
C       -0.26470000       0.17940000      -0.32710000
C       -0.02110000       1.50280000       0.24780000
N        0.25010000       1.52450000       1.69940000
C        1.31460000       2.53790000       1.51140000
C        1.36860000       2.17170000       0.01270000
C        2.55430000       1.38890000      -0.58030000
O        2.76160000       2.39580000      -1.59420000
C        1.64740000       3.17100000      -1.11680000
H       -0.82970000       2.17400000      -0.07980000
H       -0.53470000       1.79150000       2.28290000
H        0.99250000       3.57770000       1.66860000
H        2.21880000       2.35390000       2.10030000
H        3.42140000       1.28530000       0.08350000
H        2.30690000       0.41200000      -1.01160000
H        0.85220000       3.26440000      -1.86880000
H        1.94730000       4.17530000      -0.78900000
