23
Properties=species:S:1:pos:R:3 gdb_59051=T pbc="F F F"
C        0.08890000       1.52290000      -0.10930000
C        0.02450000      -0.00190000       0.04390000
O        0.71590000      -0.42520000       1.22260000
C       -1.39440000      -0.54040000       0.00350000
C       -1.86170000      -1.17440000      -1.07440000
C       -3.25180000      -1.74170000      -1.20120000
C       -3.96700000      -1.83180000       0.15420000
C       -3.74090000      -0.55570000       0.97160000
C       -2.24530000      -0.33850000       1.24050000
H        1.12940000       1.85800000      -0.06410000
H       -0.34240000       1.83700000      -1.06440000
H       -0.46660000       2.02910000       0.68940000
H        0.58580000      -0.45540000      -0.78020000
H        0.38000000       0.09240000       1.96190000
H       -1.20690000      -1.29910000      -1.93610000
H       -3.83750000      -1.12070000      -1.89640000
H       -3.20350000      -2.73240000      -1.67090000
H       -5.03700000      -2.01450000       0.00790000
H       -3.57320000      -2.69000000       0.71400000
H       -4.13730000       0.30420000       0.41590000
H       -4.29000000      -0.59900000       1.91850000
H       -1.90070000      -1.03000000       2.02260000
H       -2.08770000       0.66920000       1.64880000
