15
Properties=species:S:1:pos:R:3 gdb_25884=T pbc="F F F"
C        0.00120000       1.45270000      -0.01290000
C       -0.07720000      -0.02960000       0.02780000
N       -1.11870000      -0.79270000      -0.06520000
C       -0.62170000      -2.09180000       0.03470000
C        0.72310000      -2.03290000       0.18570000
O        1.08770000      -0.72090000       0.18340000
C       -1.46720000      -3.30900000      -0.02080000
N       -2.79070000      -3.04270000      -0.18030000
O       -0.99520000      -4.42940000       0.07030000
H        0.63170000       1.78970000      -0.84190000
H       -1.00270000       1.85780000      -0.14040000
H        0.43260000       1.84830000       0.91220000
H        1.50000000      -2.76760000       0.29860000
H       -3.11260000      -2.09170000      -0.24860000
H       -3.43880000      -3.80970000      -0.22840000
