25
Properties=species:S:1:pos:R:3 gdb_118754=T pbc="F F F"
C        0.00340000       1.61720000       0.04900000
C        0.00060000       0.08620000       0.07730000
C       -1.40310000      -0.51400000      -0.07330000
C       -1.44070000      -2.03890000      -0.00650000
O       -0.69030000      -2.62840000      -1.06750000
C       -1.13800000      -2.73220000       1.35940000
C       -2.30380000      -3.72350000       1.07840000
C       -3.22380000      -4.11080000       2.22470000
C       -2.82660000      -2.73260000      -0.00060000
H        1.01690000       2.01800000       0.15040000
H       -0.41250000       1.99470000      -0.89160000
H       -0.60120000       2.02840000       0.86500000
H        0.64400000      -0.28580000      -0.73090000
H        0.44880000      -0.26230000       1.01760000
H       -2.05520000      -0.11150000       0.71270000
H       -1.83420000      -0.20050000      -1.03340000
H        0.24180000      -2.45180000      -0.90310000
H       -0.13390000      -3.14730000       1.48850000
H       -1.36020000      -2.07600000       2.20810000
H       -1.91230000      -4.62090000       0.59070000
H       -3.62650000      -3.22190000       2.72490000
H       -4.07360000      -4.70520000       1.87030000
H       -2.69490000      -4.70490000       2.97880000
H       -3.60680000      -2.07390000       0.39450000
H       -3.14850000      -3.14040000      -0.96100000
