17
Properties=species:S:1:pos:R:3 gdb_65431=T pbc="F F F"
C        0.03590000       1.59130000      -0.16750000
C       -0.00080000       0.09320000       0.01430000
N        1.28230000      -0.64750000      -0.04750000
C        0.55900000      -0.62890000       1.20940000
C        1.19820000       0.11510000       2.37350000
C        2.06790000      -0.76500000       3.15480000
N        2.74100000      -1.47790000       3.76560000
C       -1.17130000      -0.60830000      -0.59710000
O       -2.08300000      -0.05850000      -1.15760000
H        0.97350000       2.01280000       0.19710000
H       -0.05890000       1.83690000      -1.22850000
H       -0.80120000       2.06420000       0.35370000
H        1.17950000      -1.54140000      -0.52560000
H        0.03920000      -1.53850000       1.50870000
H        1.79010000       0.95590000       2.00410000
H        0.42300000       0.51840000       3.03520000
H       -1.12570000      -1.72150000      -0.50560000
