19
Properties=species:S:1:pos:R:3 gdb_64000=T pbc="F F F"
C        0.35240000       1.41310000       0.02950000
C       -0.01290000      -0.07940000       0.01020000
C       -1.51950000      -0.28020000       0.17730000
C        0.56190000      -0.78900000      -1.26270000
N        1.83010000      -1.41980000      -0.86360000
C        1.83860000      -1.37090000       0.42060000
N        0.74740000      -0.81460000       1.04660000
C        2.97860000      -1.89350000       1.21560000
O        3.04690000      -1.77870000       2.41620000
H        1.42820000       1.55310000      -0.11490000
H       -0.17100000       1.94780000      -0.77000000
H        0.06940000       1.87520000       0.98180000
H       -2.06260000       0.17330000      -0.65860000
H       -1.76440000      -1.34490000       0.21470000
H       -1.88160000       0.18580000       1.10020000
H       -0.12130000      -1.57160000      -1.62020000
H        0.72100000      -0.09490000      -2.09410000
H        0.88780000      -0.41140000       1.96270000
H        3.76500000      -2.37650000       0.60510000
