18
Properties=species:S:1:pos:R:3 gdb_62026=T pbc="F F F"
C       -0.33370000       0.58800000       1.24290000
C        0.21750000      -0.17210000       0.04020000
O        1.23990000      -1.11230000       0.34260000
C        2.51570000      -0.56790000       0.63890000
C        2.87950000      -0.56820000       2.12960000
N        2.07360000      -1.34020000       2.90120000
O        3.83940000       0.05600000       2.53540000
C       -0.86230000      -0.96600000      -0.69110000
O       -2.01550000      -0.63370000      -0.75650000
H        0.42520000       1.23860000       1.68400000
H       -1.17940000       1.19870000       0.91810000
H       -0.68800000      -0.10630000       2.00960000
H        0.60490000       0.55180000      -0.70020000
H        3.26620000      -1.18120000       0.12580000
H        2.62100000       0.45820000       0.26930000
H        1.32520000      -1.86290000       2.47980000
H        2.28580000      -1.44710000       3.87880000
H       -0.47540000      -1.88600000      -1.18090000
