20
Properties=species:S:1:pos:R:3 gdb_68412=T pbc="F F F"
C       -0.07920000       1.51270000      -0.00610000
C        0.04040000       0.01560000      -0.02230000
C        0.47130000      -0.81310000      -1.26220000
C       -0.42300000      -1.82700000      -0.51890000
C        0.38680000      -2.17860000       0.74560000
C        0.75380000      -0.73000000       1.12070000
C        1.99830000      -0.26690000       1.77060000
N        0.72100000      -0.30440000       2.51600000
O       -1.24280000      -0.70670000      -0.05650000
H        0.90850000       1.98250000      -0.05160000
H       -0.66240000       1.85560000      -0.86420000
H       -0.58690000       1.85790000       0.90100000
H        0.00400000      -0.44170000      -2.17540000
H        1.53070000      -1.03850000      -1.41100000
H       -0.98730000      -2.61140000      -1.02200000
H       -0.23370000      -2.64390000       1.51390000
H        1.25240000      -2.81620000       0.54360000
H        2.74190000      -0.98710000       2.10230000
H        2.40750000       0.69990000       1.48530000
H        0.33710000       0.63420000       2.60200000
