16
Properties=species:S:1:pos:R:3 gdb_30498=T pbc="F F F"
C       -0.06130000       1.44750000       0.10800000
N        0.01640000      -0.00060000       0.16600000
C       -1.03250000      -0.68490000       0.07020000
O       -2.29480000      -0.01430000      -0.09580000
C       -3.38990000      -0.76450000      -0.19470000
N       -3.44550000      -2.04050000      -0.15780000
C       -2.20010000      -2.66680000       0.00480000
C       -2.25340000      -4.15990000       0.04940000
N       -1.06580000      -2.06030000       0.11300000
H        0.94500000       1.85960000       0.20700000
H       -0.48740000       1.79960000      -0.84080000
H       -0.68430000       1.85900000       0.91320000
H       -4.28610000      -0.15920000      -0.31690000
H       -2.90370000      -4.48130000       0.87030000
H       -2.70580000      -4.54040000      -0.87280000
H       -1.25470000      -4.57550000       0.17690000
