20
Properties=species:S:1:pos:R:3 gdb_83570=T pbc="F F F"
C       -0.04710000       1.54290000       0.00510000
C        0.03530000       0.01560000       0.00750000
C        0.92680000      -0.56230000      -1.10220000
C        2.36480000      -0.28940000      -0.62400000
C        2.26080000      -0.25770000       0.93420000
C        0.78050000      -0.60270000       1.21050000
N        0.60700000      -2.06760000       1.18550000
C        0.57220000      -2.59720000       0.03590000
O        0.69980000      -1.99630000      -1.17290000
H        0.93710000       2.01740000       0.06010000
H       -0.53900000       1.90580000      -0.90360000
H       -0.63060000       1.89610000       0.86130000
H       -0.97650000      -0.39650000      -0.06730000
H        0.71300000      -0.19600000      -2.10760000
H        3.03770000      -1.06630000      -0.99360000
H        2.72420000       0.66360000      -1.02270000
H        2.92070000      -0.98300000       1.41410000
H        2.51480000       0.72980000       1.33090000
H        0.43230000      -0.23550000       2.17900000
H        0.42260000      -3.66790000      -0.08970000
