15
Properties=species:S:1:pos:R:3 gdb_49433=T pbc="F F F"
O        0.36140000      -0.02670000       0.57320000
C        0.27510000       1.15840000       0.38230000
N        1.05570000       1.87260000      -0.51000000
C        1.42740000       3.33690000      -0.43980000
C        2.93290000       3.70220000       0.06590000
C        3.86180000       2.64850000       0.71440000
N        3.24610000       1.35140000       0.26840000
C        2.49210000       1.71780000      -0.68790000
C        2.62540000       3.15340000      -1.27630000
H       -0.49090000       1.80950000       0.85130000
H        0.65330000       4.09270000      -0.50790000
H        3.09280000       4.76550000       0.22670000
H        4.90770000       2.80720000       0.41220000
H        3.82440000       2.62060000       1.80760000
H        2.85810000       3.46030000      -2.28600000
