18
Properties=species:S:1:pos:R:3 gdb_70529=T pbc="F F F"
O        0.20160000       1.35070000      -0.14450000
C        0.10770000      -0.04760000      -0.06250000
C       -0.58370000      -0.78160000      -1.19350000
C       -1.29160000      -0.53130000       0.11680000
O       -1.58120000      -1.64270000       0.92880000
C       -1.16790000      -1.68760000       2.23950000
N       -0.17000000      -1.22000000       2.84360000
C        0.92820000      -0.47000000       2.25640000
C        1.18800000      -0.71160000       0.76360000
H        0.93160000       1.56280000      -0.73750000
H       -0.91610000      -0.20450000      -2.04890000
H       -0.27520000      -1.79990000      -1.40250000
H       -2.07660000       0.22020000       0.12970000
H       -1.87910000      -2.30630000       2.78770000
H        0.75300000       0.60110000       2.42190000
H        1.82410000      -0.72420000       2.83470000
H        1.22350000      -1.78750000       0.56510000
H        2.16720000      -0.30410000       0.47990000
