17
Properties=species:S:1:pos:R:3 gdb_2087=T pbc="F F F"
C        0.00510000       1.51560000       0.06300000
C       -0.02120000       0.01670000      -0.03730000
C       -0.06800000      -0.64960000      -1.19170000
C       -0.03970000      -2.15400000      -1.25430000
C        0.43370000      -2.72010000       0.08540000
O       -0.25920000      -2.11440000       1.16320000
C        0.01840000      -0.73380000       1.27410000
H        0.89600000       1.86380000       0.60230000
H        0.00690000       1.98160000      -0.92590000
H       -0.86240000       1.89530000       0.61840000
H       -0.12060000      -0.10280000      -2.13070000
H       -1.03580000      -2.54830000      -1.49930000
H        0.63000000      -2.49260000      -2.05550000
H        0.23980000      -3.79360000       0.16180000
H        1.52000000      -2.56150000       0.19300000
H        1.00170000      -0.57320000       1.75770000
H       -0.73520000      -0.32840000       1.96120000
