19
Properties=species:S:1:pos:R:3 gdb_49706=T pbc="F F F"
O       -0.66810000       0.78460000       0.59970000
C        0.10400000       1.07440000      -0.28070000
C        1.28250000       2.00420000      -0.15520000
C        1.20630000       3.30820000      -1.01000000
C        0.00890000       4.04090000      -0.31410000
C        0.21080000       3.69130000       1.19100000
C        1.48320000       2.77450000       1.17140000
C        2.63680000       3.67970000       0.76610000
C        2.47230000       3.99670000      -0.52250000
H       -0.00590000       0.62800000      -1.29820000
H        2.17420000       1.43100000      -0.44070000
H        1.10270000       3.18740000      -2.08910000
H        0.02840000       5.11440000      -0.51300000
H       -0.94550000       3.65380000      -0.68520000
H        0.37190000       4.57540000       1.81140000
H       -0.64270000       3.14100000       1.58900000
H        1.61900000       2.17610000       2.07130000
H        3.37600000       4.07440000       1.45220000
H        3.04450000       4.70520000      -1.10860000
