18
Properties=species:S:1:pos:R:3 gdb_50209=T pbc="F F F"
O       -0.54000000       0.62670000      -0.61660000
C        0.18260000       0.95790000       0.28900000
C        1.32890000       1.93950000       0.16290000
C        1.38250000       2.77880000      -1.14290000
C        1.90270000       4.11530000      -0.62100000
C        1.08860000       4.85370000       0.43960000
C        0.17590000       3.86200000       1.14130000
N        1.33840000       2.89900000       1.29410000
C        2.25900000       3.98390000       0.83290000
H        0.05810000       0.54430000       1.31420000
H        2.24690000       1.33950000       0.26170000
H        2.06190000       2.34350000      -1.88070000
H        0.39640000       2.84350000      -1.61110000
H        2.51750000       4.74500000      -1.25400000
H        1.00840000       5.93380000       0.45180000
H       -0.15270000       4.20180000       2.12690000
H       -0.68750000       3.46690000       0.59260000
H        3.20720000       4.18530000       1.31420000
