15
Properties=species:S:1:pos:R:3 gdb_27484=T pbc="F F F"
C       -0.13150000       1.49940000       0.07330000
C        0.03320000       0.01630000      -0.05880000
C       -0.13980000      -0.67020000      -1.21170000
C        0.03880000      -2.10220000      -1.25280000
O       -0.07930000      -2.83470000      -2.19210000
O        0.39880000      -2.70020000      -0.01910000
C        0.57690000      -2.02610000       1.14830000
N        0.89840000      -2.56700000       2.24530000
N        0.38120000      -0.65290000       1.08120000
H        0.80000000       1.96290000       0.41750000
H       -0.40790000       1.94340000      -0.88310000
H       -0.90950000       1.73830000       0.80720000
H       -0.41450000      -0.17760000      -2.13220000
H        1.00380000      -3.57200000       2.12870000
H        0.51650000      -0.16630000       1.95340000
