25
Properties=species:S:1:pos:R:3 gdb_116862=T pbc="F F F"
C        0.00560000       1.58710000       0.04270000
C        0.05070000       0.05800000       0.03400000
C        0.64430000      -0.50700000      -1.27260000
C        0.69690000      -1.96550000      -1.29910000
C        0.72750000      -3.17050000      -1.29100000
C        0.76930000      -4.63890000      -1.28940000
C        1.54590000      -5.13180000      -2.53150000
C        1.47910000      -5.13100000      -0.00770000
C       -0.67260000      -5.19430000      -1.32720000
H        1.00850000       2.01550000      -0.06430000
H       -0.60740000       1.97190000      -0.78020000
H       -0.41890000       1.96500000       0.97780000
H        0.64580000      -0.30680000       0.87880000
H       -0.95730000      -0.35010000       0.16920000
H        0.05250000      -0.14320000      -2.12390000
H        1.65430000      -0.09850000      -1.41560000
H        2.57070000      -4.74960000      -2.52770000
H        1.58630000      -6.22650000      -2.54280000
H        1.06230000      -4.79550000      -3.45310000
H        0.94920000      -4.79130000       0.88680000
H        1.51600000      -6.22580000       0.00840000
H        2.50380000      -4.75140000       0.04070000
H       -1.19640000      -4.85940000      -2.22700000
H       -0.65700000      -6.28980000      -1.32500000
H       -1.24350000      -4.85690000      -0.45730000
