18
Properties=species:S:1:pos:R:3 gdb_57687=T pbc="F F F"
C       -0.73880000       1.32440000      -0.50190000
C       -0.16890000      -0.03660000      -0.03590000
C        0.57430000       0.11680000       1.30470000
N       -1.17310000      -1.11880000       0.04300000
C       -2.04310000      -1.22200000       1.19990000
C       -2.98640000      -0.10460000       1.43890000
N       -3.71830000       0.77460000       1.60600000
C        0.80850000      -0.49060000      -1.05360000
N        1.56510000      -0.81990000      -1.86230000
H        0.06650000       2.05340000      -0.62940000
H       -1.25170000       1.21710000      -1.46200000
H       -1.44880000       1.71040000       0.23190000
H       -0.08610000       0.54630000       2.06280000
H        0.95100000      -0.84770000       1.65420000
H        1.42190000       0.79320000       1.17850000
H       -1.71040000      -1.15480000      -0.81560000
H       -2.63720000      -2.13490000       1.08680000
H       -1.44600000      -1.35910000       2.10570000
