17
Properties=species:S:1:pos:R:3 gdb_94407=T pbc="F F F"
C       -0.31430000       1.43940000      -0.06110000
C        0.07940000      -0.02860000      -0.11240000
C        1.41060000      -0.38110000      -0.81460000
O        1.96700000      -0.89570000       0.42070000
C        0.76640000      -0.64240000       1.13430000
C        0.84120000       0.00190000       2.53050000
O        0.11340000      -1.13430000       3.10080000
C        0.09180000      -1.80340000       1.90020000
O       -0.34660000      -2.88180000       1.66730000
H        0.51470000       2.06620000       0.28490000
H       -0.60460000       1.79070000      -1.05670000
H       -1.16650000       1.60240000       0.60670000
H       -0.75790000      -0.64180000      -0.45400000
H        1.35550000      -1.15580000      -1.58590000
H        1.98930000       0.47050000      -1.19100000
H        1.85390000       0.06420000       2.93390000
H        0.29390000       0.93310000       2.68760000
