18
Properties=species:S:1:pos:R:3 gdb_128137=T pbc="F F F"
C        0.36630000       1.41180000       0.39000000
N       -0.18480000       0.18300000      -0.19170000
C        0.57900000      -0.40250000      -1.23050000
C        0.26900000      -0.32250000      -2.56390000
N       -0.73890000       0.34650000      -3.20840000
O        1.16610000      -0.97580000      -3.30080000
N        2.13680000      -1.55060000      -2.43120000
C        1.77350000      -1.18720000      -1.22400000
C        2.58190000      -1.63110000      -0.04680000
H        1.36150000       1.29010000       0.84580000
H        0.44840000       2.17230000      -0.39170000
H       -0.31960000       1.78490000       1.15700000
H       -0.38840000      -0.48820000       0.54010000
H       -1.50860000       0.55930000      -2.58730000
H       -1.02920000      -0.06400000      -4.08460000
H        3.01630000      -0.77510000       0.48010000
H        1.96280000      -2.17820000       0.67280000
H        3.39210000      -2.28500000      -0.37510000
