20
Properties=species:S:1:pos:R:3 gdb_92513=T pbc="F F F"
C       -0.46830000       1.50590000      -0.08800000
C       -0.02840000       0.04770000      -0.03190000
C        0.72770000      -0.48980000      -1.27210000
C        1.57010000      -1.64490000      -0.69280000
C        3.12720000      -1.66200000      -0.77300000
C        3.14390000      -1.50550000       0.77790000
N        1.67050000      -1.36300000       0.75560000
C        0.98770000      -0.21630000       1.10250000
O        1.19170000       0.47160000       2.07760000
H        0.37620000       2.16010000      -0.32810000
H       -1.24360000       1.65700000      -0.84500000
H       -0.85970000       1.81950000       0.88310000
H       -0.90350000      -0.58940000       0.15760000
H        0.06390000      -0.80540000      -2.08050000
H        1.38220000       0.29700000      -1.66720000
H        1.11550000      -2.62110000      -0.89730000
H        3.57610000      -2.57540000      -1.16620000
H        3.54250000      -0.80180000      -1.30380000
H        3.47520000      -2.39330000       1.32360000
H        3.64670000      -0.62570000       1.18830000
