17
Properties=species:S:1:pos:R:3 gdb_30169=T pbc="F F F"
C        0.12600000       1.47740000       0.09300000
C       -0.01450000      -0.03880000      -0.02480000
C        0.74460000      -0.60670000      -1.29490000
C        1.93280000      -1.24220000      -0.64350000
C        1.76560000      -1.24220000       0.69030000
N        0.57860000      -0.73110000       1.18740000
O        2.78130000      -1.89390000       1.29010000
C        3.56330000      -2.27290000       0.20610000
N        3.10100000      -1.92320000      -0.95120000
H        1.18240000       1.76630000       0.12030000
H       -0.34020000       1.97290000      -0.76450000
H       -0.36110000       1.85340000       0.99960000
H       -1.07380000      -0.30400000      -0.07030000
H        0.11930000      -1.33070000      -1.83050000
H        0.97880000       0.19980000      -1.99900000
H        0.67100000      -0.10560000       1.98160000
H        4.47290000      -2.79710000       0.44750000
