21
Properties=species:S:1:pos:R:3 gdb_91038=T pbc="F F F"
C       -0.23340000       1.56270000      -0.00170000
C        0.05340000       0.06690000      -0.01640000
C        1.19050000      -0.48330000      -0.94340000
C        1.81320000      -1.24400000       0.26370000
C        2.90780000      -0.49310000       1.05810000
O        2.64200000       0.91080000       0.95610000
C        1.89930000       0.15430000       1.91830000
C        0.73930000      -0.61140000       1.21720000
C       -0.09590000      -1.44850000       2.16130000
H        0.68070000       2.13660000       0.16410000
H       -0.66950000       1.88300000      -0.95470000
H       -0.94960000       1.81940000       0.78780000
H       -0.87830000      -0.47400000      -0.22090000
H        0.84110000      -1.13210000      -1.74970000
H        1.83900000       0.28830000      -1.36220000
H        1.93210000      -2.32600000       0.20040000
H        3.93620000      -0.77840000       1.25160000
H        1.94600000       0.49760000       2.94750000
H       -0.76890000      -0.81910000       2.75720000
H       -0.71170000      -2.16890000       1.61270000
H        0.53330000      -2.01160000       2.86110000
