16
Properties=species:S:1:pos:R:3 gdb_110768=T pbc="F F F"
O        0.09090000       1.29470000      -0.32440000
C        0.05130000      -0.00630000       0.23810000
C       -1.33280000      -0.61510000       0.14710000
C       -1.88360000      -1.27780000      -1.08220000
O       -0.81990000      -2.00260000      -1.76480000
C       -0.67990000      -2.85640000      -0.66800000
N       -0.05920000      -3.93610000      -0.54180000
C       -1.64850000      -2.09930000       0.18860000
O       -2.44280000      -2.62250000       1.17060000
H       -0.06590000       1.20490000      -1.27030000
H        0.78980000      -0.67200000      -0.22710000
H        0.32950000       0.11010000       1.29000000
H       -2.10370000      -0.05910000       0.67940000
H       -2.76200000      -1.02380000      -1.65840000
H        0.44620000      -4.18430000      -1.39370000
H       -2.68340000      -3.52180000       0.91600000
