19
Properties=species:S:1:pos:R:3 gdb_57795=T pbc="F F F"
C        0.20270000       1.14890000      -0.66850000
C        0.11170000      -0.01490000       0.32920000
O        0.41930000       0.40750000       1.65640000
C       -1.19190000      -0.68470000       0.25900000
C       -2.28210000      -1.19880000       0.22180000
C       -3.58110000      -1.83200000       0.15310000
C       -4.67150000      -1.22430000      -0.77520000
O       -4.90900000      -2.49990000      -1.39710000
C       -3.75960000      -3.08200000      -0.75600000
H        1.18250000       1.62560000      -0.58230000
H        0.06470000       0.79500000      -1.69440000
H       -0.57170000       1.89400000      -0.45890000
H        0.89590000      -0.74340000       0.08920000
H       -0.32200000       0.93900000       1.96730000
H       -3.97160000      -2.01460000       1.15830000
H       -5.56690000      -0.82840000      -0.28430000
H       -4.28160000      -0.48260000      -1.48350000
H       -2.92860000      -3.23920000      -1.45460000
H       -3.99780000      -4.02350000      -0.25010000
