23
Properties=species:S:1:pos:R:3 gdb_106627=T pbc="F F F"
C       -0.09070000       1.35020000       0.02550000
O        0.14720000      -0.04200000       0.02270000
C        0.71980000      -0.54000000      -1.14290000
C       -0.01210000      -0.54840000      -2.52720000
C        0.98240000      -1.71460000      -2.79220000
C        2.33640000      -0.97330000      -2.80410000
C        2.14110000      -0.07120000      -1.54510000
C        0.79580000      -2.08620000      -1.28640000
C        1.80220000      -2.92170000      -0.51080000
H        0.84090000       1.93260000      -0.00780000
H       -0.72250000       1.65690000      -0.82090000
H       -0.61380000       1.58260000       0.95620000
H       -1.04870000      -0.88100000      -2.44150000
H        0.06000000       0.33710000      -3.16560000
H        0.80240000      -2.44430000      -3.58110000
H        3.19010000      -1.65010000      -2.71180000
H        2.47360000      -0.39110000      -3.71990000
H        2.17410000       0.99460000      -1.78610000
H        2.87360000      -0.25870000      -0.75560000
H       -0.21050000      -2.49070000      -1.13610000
H        2.83220000      -2.57730000      -0.63800000
H        1.57430000      -2.89510000       0.56010000
H        1.76340000      -3.96880000      -0.83100000
