20
Properties=species:S:1:pos:R:3 gdb_51548=T pbc="F F F"
O       -0.62100000       0.29950000       0.16690000
C       -0.05270000       1.36150000       0.15420000
C        1.37240000       1.57480000      -0.31360000
C        1.44810000       2.66050000      -1.36900000
N        1.32800000       4.05170000      -0.87570000
C        2.58230000       3.61070000      -1.47380000
C        3.94120000       3.56600000      -0.76610000
C        4.61220000       3.69560000      -2.16670000
C        3.23390000       4.09470000      -2.77540000
H       -0.55910000       2.29310000       0.49160000
H        1.96220000       1.89150000       0.55620000
H        1.77070000       0.62440000      -0.68180000
H        0.94100000       2.42040000      -2.30320000
H        0.80070000       4.62200000      -1.53300000
H        4.09770000       4.44600000      -0.13580000
H        4.17560000       2.67230000      -0.18190000
H        5.41600000       4.42770000      -2.25870000
H        4.96880000       2.73560000      -2.54640000
H        2.92850000       3.60370000      -3.70330000
H        3.13700000       5.17820000      -2.90410000
