19
Properties=species:S:1:pos:R:3 gdb_56603=T pbc="F F F"
O       -0.12510000       1.42820000      -0.15460000
C        0.02230000       0.02410000      -0.02270000
C        0.60020000      -0.58980000      -1.22550000
C        1.07110000      -1.09420000      -2.20940000
C        0.86350000      -0.29870000       1.23440000
O        2.07680000       0.43350000       1.06250000
C        0.14850000       0.10350000       2.50160000
C       -0.68430000      -0.90100000       3.25310000
C        0.63040000      -0.43870000       3.82880000
H        0.77300000       1.77990000      -0.08130000
H       -0.98620000      -0.37600000       0.13160000
H        1.48600000      -1.53490000      -3.08200000
H        1.07040000      -1.37990000       1.25430000
H        2.46820000       0.55210000       1.93370000
H       -0.21190000       1.12720000       2.48800000
H       -1.60180000      -0.55770000       3.71700000
H       -0.73410000      -1.91340000       2.86560000
H        1.45380000      -1.14700000       3.82410000
H        0.61600000       0.22000000       4.68980000
