18
Properties=species:S:1:pos:R:3 gdb_53800=T pbc="F F F"
C        0.43280000       1.36160000       0.02770000
C       -0.05990000      -0.07080000      -0.00930000
C        0.46300000      -1.02770000      -1.00830000
N        0.83040000      -1.16840000       0.41990000
C       -1.51170000      -0.21480000       0.44150000
O       -2.41520000      -0.19800000      -0.35390000
C       -1.76310000      -0.30170000       1.94900000
N       -1.13220000      -1.35740000       2.56010000
N       -2.53710000       0.58140000       2.45140000
H        1.47360000       1.41770000      -0.30890000
H       -0.17500000       1.99220000      -0.62810000
H        0.37070000       1.77370000       1.04020000
H       -0.18340000      -1.80840000      -1.39560000
H        1.22620000      -0.67980000      -1.69890000
H        1.77060000      -0.81410000       0.58140000
H       -0.33620000      -1.75850000       2.07720000
H       -1.11290000      -1.37360000       3.56860000
H       -2.63110000       0.45600000       3.46320000
