22
Properties=species:S:1:pos:R:3 gdb_60219=T pbc="F F F"
C        0.08610000       1.56520000      -0.03290000
C        0.01970000       0.03880000       0.01160000
O        0.68730000      -0.47220000       1.16610000
C       -1.41730000      -0.49110000      -0.09140000
C       -1.50130000      -2.01510000      -0.11120000
C       -1.29550000      -2.85780000       1.17970000
N       -2.58370000      -3.61480000       0.96950000
C       -3.64140000      -2.59390000       1.04650000
C       -2.86860000      -2.69260000      -0.20790000
H        1.12190000       1.90320000       0.05840000
H       -0.32640000       1.95500000      -0.96910000
H       -0.49090000       2.00350000       0.79160000
H        0.59910000      -0.36600000      -0.82840000
H        0.27250000      -0.07670000       1.94100000
H       -2.00710000      -0.08660000       0.74350000
H       -1.87340000      -0.09260000      -1.00810000
H       -0.84510000      -2.39660000      -0.90040000
H       -0.43950000      -3.53230000       1.14330000
H       -1.26990000      -2.30750000       2.12550000
H       -4.64170000      -3.01690000       1.04790000
H       -3.51090000      -1.74660000       1.71730000
H       -3.31480000      -3.06770000      -1.12460000
