18
Properties=species:S:1:pos:R:3 gdb_36234=T pbc="F F F"
N       -0.14940000      -1.08570000       0.59500000
C       -0.10550000       0.02280000       0.27150000
C       -0.02460000       1.43100000      -0.12940000
C        1.39450000       1.96560000      -0.10730000
C        1.98100000       2.43530000      -1.20690000
C        3.36260000       3.03010000      -1.19240000
O        3.85920000       3.26730000       0.10790000
C        3.62450000       2.17710000       0.98290000
C        2.12570000       1.96850000       1.21360000
H       -0.45860000       1.53630000      -1.12890000
H       -0.66050000       2.00820000       0.55610000
H        1.47630000       2.40470000      -2.16980000
H        4.04990000       2.37510000      -1.76030000
H        3.36230000       4.00130000      -1.70170000
H        4.06800000       1.25470000       0.57420000
H        4.14030000       2.41600000       1.91650000
H        1.72680000       2.76040000       1.86280000
H        1.96150000       1.02040000       1.74100000
