21
Properties=species:S:1:pos:R:3 gdb_92148=T pbc="F F F"
C       -0.12540000       1.58130000       0.04190000
C        0.02410000       0.05570000      -0.00460000
C        0.82510000      -0.45890000      -1.24500000
C        2.15720000      -0.89460000      -0.65150000
O        2.77080000       0.27660000      -0.01080000
C        2.29840000      -0.20020000       1.25110000
C        0.81220000      -0.51730000       1.18030000
C        1.85050000      -1.53020000       0.73170000
C        2.03750000      -2.94800000       1.17580000
H        0.85700000       2.05900000       0.00880000
H       -0.71400000       1.94560000      -0.80720000
H       -0.63370000       1.89940000       0.95870000
H       -0.97630000      -0.39180000      -0.00580000
H        0.32750000      -1.31480000      -1.71700000
H        0.95810000       0.31470000      -2.00750000
H        2.86090000      -1.39550000      -1.32060000
H        2.83530000       0.10420000       2.14290000
H        0.31450000      -0.67880000       2.13200000
H        1.34230000      -3.62470000       0.66400000
H        3.05550000      -3.30230000       0.97790000
H        1.85520000      -3.04550000       2.25100000
