22
Properties=species:S:1:pos:R:3 gdb_116700=T pbc="F F F"
C       -0.07600000       1.46690000      -0.07630000
O        0.04260000       0.06570000       0.13340000
C       -1.10640000      -0.63410000       0.05320000
N       -1.11370000      -1.88130000       0.22200000
C       -2.37640000      -2.56510000       0.12240000
C       -2.43060000      -3.80030000      -0.81900000
C       -3.27630000      -4.54230000       0.25420000
C       -3.02900000      -6.02330000       0.49370000
C       -2.75340000      -3.51240000       1.29520000
H        0.92920000       1.87850000       0.02160000
H       -0.45940000       1.69330000      -1.07890000
H       -0.72810000       1.93280000       0.67270000
H       -1.99790000      -0.02420000      -0.16610000
H       -3.21130000      -1.87870000      -0.09860000
H       -2.85370000      -3.66320000      -1.81770000
H       -1.43180000      -4.23790000      -0.91070000
H       -4.34320000      -4.37160000       0.06810000
H       -1.96700000      -6.21690000       0.68230000
H       -3.59330000      -6.38710000       1.36000000
H       -3.32860000      -6.62310000      -0.37330000
H       -1.84370000      -3.87050000       1.78660000
H       -3.44490000      -3.13590000       2.05370000
