20
Properties=species:S:1:pos:R:3 gdb_68363=T pbc="F F F"
C       -0.09190000       1.51900000      -0.01960000
C        0.06100000       0.01310000       0.00030000
C        1.13330000      -0.69100000      -0.88630000
C        1.12920000      -1.80910000       0.19660000
C        0.72330000      -0.70480000       1.21580000
C       -0.05840000      -2.75060000      -0.04120000
C       -1.37210000      -1.99440000      -0.29210000
O       -2.43220000      -2.55090000      -0.50240000
N       -1.22910000      -0.63510000      -0.25550000
H        0.86950000       2.00270000       0.17110000
H       -0.45810000       1.86410000      -0.99330000
H       -0.79800000       1.85260000       0.74940000
H        0.84420000      -0.95030000      -1.90830000
H        2.07510000      -0.13600000      -0.89300000
H        2.05550000      -2.35950000       0.37360000
H        1.59230000      -0.15230000       1.58300000
H        0.07210000      -0.97630000       2.05100000
H        0.11280000      -3.40050000      -0.90640000
H       -0.22310000      -3.41200000       0.81660000
H       -2.05780000      -0.08160000      -0.41320000
