15
Properties=species:S:1:pos:R:3 gdb_51514=T pbc="F F F"
N       -0.09190000       1.28850000       0.17290000
C       -0.04260000       0.03610000       0.06760000
O       -1.19500000      -0.68330000       0.10170000
C       -1.05760000      -2.08400000       0.07140000
O       -0.66260000      -2.58630000       1.34360000
C       -1.65000000      -3.41440000       1.84330000
N       -1.60780000      -4.00930000       2.95550000
C       -2.72510000      -3.48070000       0.84160000
C       -2.39660000      -2.71610000      -0.19620000
H        0.84450000       1.68320000       0.11310000
H        0.85410000      -0.58330000      -0.06330000
H       -0.27940000      -2.36330000      -0.65300000
H       -0.75100000      -3.77840000       3.46070000
H       -3.61710000      -4.06920000       0.99470000
H       -2.95810000      -2.51680000      -1.09750000
