13
Properties=species:S:1:pos:R:3 gdb_4710=T pbc="F F F"
C       -0.00490000       1.44330000       0.11110000
C       -0.02050000      -0.03220000      -0.04560000
N       -0.13100000      -0.72280000      -1.14810000
C       -0.08820000      -2.03470000      -0.73390000
C        0.04840000      -2.08390000       0.62390000
O        0.09200000      -0.78580000       1.06750000
C        0.14260000      -3.18840000       1.56190000
O        0.26190000      -3.08450000       2.76140000
H        0.92910000       1.77440000       0.57620000
H       -0.10440000       1.90650000      -0.87010000
H       -0.82680000       1.77360000       0.75410000
H       -0.15750000      -2.85670000      -1.43010000
H        0.09270000      -4.17710000       1.05610000
