16
Properties=species:S:1:pos:R:3 gdb_44756=T pbc="F F F"
N       -0.03050000       1.22670000      -0.02890000
C       -0.03750000      -0.02890000      -0.01150000
O        1.05190000      -0.87480000      -0.01900000
C        0.41660000      -2.18670000       0.01020000
C       -0.69710000      -2.03520000      -1.04500000
C       -1.21950000      -0.98890000       0.02240000
C       -0.65950000      -2.00570000       1.09910000
C       -2.55700000      -0.47100000       0.03870000
C       -3.69040000      -0.07280000       0.05300000
H        0.92730000       1.58190000      -0.05060000
H        1.17910000      -2.96080000       0.00750000
H       -0.41530000      -1.65590000      -2.02850000
H       -1.35600000      -2.90050000      -1.12040000
H       -1.31500000      -2.86830000       1.22140000
H       -0.34370000      -1.59960000       2.06140000
H       -4.68540000       0.29730000       0.06530000
