23
Properties=species:S:1:pos:R:3 gdb_47917=T pbc="F F F"
O        0.02490000      -0.05280000       0.15780000
C       -0.00040000       1.15610000       0.08400000
C       -1.31670000       1.92350000       0.05890000
C       -1.39590000       3.08990000      -0.93940000
C       -1.34410000       2.68870000      -2.42170000
C       -0.10910000       1.89180000      -2.88550000
C        1.26730000       2.50540000      -2.52990000
C        1.99360000       1.84490000      -1.34510000
C        1.30230000       1.95340000       0.03240000
H       -2.11760000       1.19600000      -0.10640000
H       -1.45400000       2.32500000       1.07400000
H       -2.33300000       3.62940000      -0.76030000
H       -0.59910000       3.81060000      -0.72420000
H       -2.24100000       2.10360000      -2.66340000
H       -1.41360000       3.60780000      -3.01820000
H       -0.15930000       0.86730000      -2.49950000
H       -0.18530000       1.79120000      -3.97390000
H        1.92940000       2.41910000      -3.39870000
H        1.16340000       3.58360000      -2.34810000
H        2.13780000       0.77930000      -1.56080000
H        2.99380000       2.28420000      -1.25560000
H        1.14270000       3.00410000       0.29550000
H        1.96530000       1.51460000       0.78480000
