16
Properties=species:S:1:pos:R:3 gdb_125865=T pbc="F F F"
C       -0.09050000       1.59200000      -0.02650000
C        0.00260000       0.05530000       0.00160000
C        0.86080000      -0.52710000      -1.12140000
C        1.86020000      -1.26320000      -0.62260000
N        1.76010000      -1.24610000       0.78240000
N        2.46440000      -1.78310000       1.79040000
N        1.86830000      -1.38920000       2.88880000
C        0.78920000      -0.60390000       2.57940000
C        0.70660000      -0.50220000       1.21160000
H        0.90360000       2.04180000       0.03890000
H       -0.56370000       1.93010000      -0.95310000
H       -0.68860000       1.95530000       0.81390000
H       -1.01470000      -0.35440000      -0.06870000
H        0.67210000      -0.34800000      -2.17020000
H        2.65430000      -1.81580000      -1.09950000
H        0.16780000      -0.18310000       3.35240000
