23
Properties=species:S:1:pos:R:3 gdb_120485=T pbc="F F F"
C       -0.08290000       1.44650000       0.38270000
C       -0.11920000      -0.06830000       0.16820000
C       -1.53340000      -0.60610000      -0.08380000
C       -1.55520000      -2.11590000      -0.25000000
O       -1.14170000      -2.81980000       0.94830000
C       -2.36020000      -3.60190000       0.99490000
C       -3.09210000      -3.47380000       2.31620000
C       -2.92300000      -2.85530000      -0.24870000
O       -4.10310000      -2.10580000      -0.11710000
H        0.93840000       1.79860000       0.55860000
H       -0.47430000       1.98210000      -0.48960000
H       -0.68820000       1.73920000       1.24810000
H        0.52290000      -0.33610000      -0.68120000
H        0.29790000      -0.58130000       1.04200000
H       -2.17980000      -0.31510000       0.75570000
H       -1.96180000      -0.14810000      -0.98510000
H       -0.91720000      -2.40150000      -1.09940000
H       -2.14380000      -4.66000000       0.79130000
H       -3.33070000      -2.43120000       2.54980000
H       -4.02400000      -4.04760000       2.29800000
H       -2.46450000      -3.85730000       3.12630000
H       -3.08480000      -3.49640000      -1.11710000
H       -4.00790000      -1.50100000       0.62540000
