17
Properties=species:S:1:pos:R:3 gdb_67870=T pbc="F F F"
O        0.21250000       1.30080000      -0.21830000
C        0.13260000      -0.08400000      -0.03480000
C        0.82430000      -0.88460000      -1.10520000
C        0.03320000      -1.80980000      -1.64770000
C       -1.36130000      -1.83060000      -1.05820000
C       -1.26910000      -0.81080000       0.08280000
N       -0.77460000      -1.35500000       1.36850000
C        0.33890000      -0.53430000       1.41790000
N        1.17760000      -0.12220000       2.27120000
H        0.59820000       1.66220000       0.59040000
H        1.85450000      -0.68620000      -1.37530000
H        0.33530000      -2.49960000      -2.42860000
H       -2.11990000      -1.55880000      -1.80320000
H       -1.63310000      -2.82200000      -0.67570000
H       -2.12260000      -0.13740000       0.18660000
H       -1.33310000      -1.65970000       2.15290000
H        1.00660000      -0.49580000       3.20600000
