19
Properties=species:S:1:pos:R:3 gdb_90975=T pbc="F F F"
O       -0.24260000       1.42920000       0.30560000
C       -0.02700000       0.05130000       0.02600000
C        0.86470000      -0.65000000       1.14530000
C       -0.03010000      -1.78050000       1.66500000
C       -0.91550000      -1.94630000       2.94370000
C       -1.47480000      -0.52950000       2.76320000
C       -1.43000000      -1.25220000       1.38580000
C       -1.44220000      -0.63350000       0.01730000
O       -2.01140000      -2.45220000       2.04380000
H        0.61300000       1.87020000       0.30570000
H        0.44480000      -0.05820000      -0.95990000
H        1.80390000      -1.02540000       0.73080000
H        1.11460000       0.10330000       1.89690000
H        0.16000000      -2.74220000       1.18260000
H       -0.74480000      -2.52920000       3.84960000
H       -2.47760000      -0.37720000       3.16280000
H       -0.82110000       0.32830000       2.92280000
H       -2.21490000       0.11370000      -0.17120000
H       -1.48970000      -1.40710000      -0.75530000
