21
Properties=species:S:1:pos:R:3 gdb_96007=T pbc="F F F"
C        0.46460000       1.44220000      -0.35460000
C       -0.03720000       0.07210000       0.10910000
O        0.09380000      -0.90820000      -0.91690000
C        1.37600000      -1.52800000      -0.81700000
C        1.92140000      -1.23430000       0.59930000
C        0.73650000      -0.54430000       1.30230000
C        1.09040000       0.42440000       2.40700000
C        2.26830000       0.27800000       3.27190000
O        2.23890000       1.26120000       2.23420000
H        1.54090000       1.43800000      -0.54810000
H       -0.05170000       1.72080000      -1.27730000
H        0.26760000       2.21070000       0.39900000
H       -1.10880000       0.14010000       0.32980000
H        1.23760000      -2.59930000      -0.99900000
H        2.05100000      -1.14290000      -1.59340000
H        2.23540000      -2.14540000       1.11360000
H        2.77740000      -0.55590000       0.56360000
H        0.08380000      -1.30930000       1.74200000
H        0.23430000       0.95240000       2.83270000
H        2.24600000       0.67120000       4.28720000
H        2.95820000      -0.54830000       3.10990000
