16
Properties=species:S:1:pos:R:3 gdb_5228=T pbc="F F F"
C        0.09330000       1.44900000       0.12310000
C       -0.07650000      -0.02190000      -0.23790000
N       -1.38680000      -0.50850000       0.21110000
C       -1.68790000      -1.84600000       0.06980000
C       -2.80100000      -2.55390000      -0.27010000
N       -2.53280000      -3.91310000      -0.12050000
C       -1.30900000      -3.96130000       0.27260000
O       -0.71580000      -2.73740000       0.42000000
H        1.07740000       1.80740000      -0.19130000
H       -0.65930000       2.07040000      -0.37620000
H       -0.00540000       1.59760000       1.20200000
H        0.06090000      -0.16660000      -1.32170000
H        0.68590000      -0.62390000       0.26310000
H       -2.14950000       0.07300000      -0.11060000
H       -3.75980000      -2.19150000      -0.60250000
H       -0.69240000      -4.81930000       0.48470000
