17
Properties=species:S:1:pos:R:3 gdb_13490=T pbc="F F F"
C       -0.01330000       1.57650000       0.03920000
C        0.02520000       0.04770000       0.01580000
O        0.78510000      -0.47770000       1.10150000
C       -1.38540000      -0.54920000       0.00790000
C       -1.52070000      -2.09900000       0.08710000
N       -2.28520000      -1.90380000       1.32840000
C       -2.07710000      -0.55070000       1.39780000
O       -2.28710000       0.27200000       2.25380000
H        1.00310000       1.97480000       0.09940000
H       -0.48890000       1.97290000      -0.86380000
H       -0.58650000       1.92810000       0.90360000
H        0.55600000      -0.29220000      -0.88200000
H        0.45030000      -0.06900000       1.90930000
H       -2.00030000      -0.09730000      -0.77490000
H       -2.08640000      -2.58010000      -0.71540000
H       -0.56290000      -2.60410000       0.23980000
H       -2.52630000      -2.55560000       2.06140000
