13
Properties=species:S:1:pos:R:3 gdb_20855=T pbc="F F F"
C       -0.06910000       1.51040000       0.14020000
C        0.02500000      -0.00500000      -0.05180000
C        0.73870000      -0.39920000      -1.29500000
N        1.25240000       0.38330000      -2.17090000
O        1.80570000      -0.49030000      -3.14530000
C        1.57810000      -1.77400000      -2.77380000
O        1.89830000      -2.76030000      -3.34630000
O        0.88620000      -1.71920000      -1.57420000
H        0.92380000       1.96280000       0.19430000
H       -0.60450000       1.97970000      -0.68840000
H       -0.60220000       1.73260000       1.06740000
H        0.54240000      -0.47910000       0.79160000
H       -0.97180000      -0.46230000      -0.08290000
