12
Properties=species:S:1:pos:R:3 gdb_130594=T pbc="F F F"
O        0.06450000      -0.05300000       0.00190000
C       -0.01830000       1.13850000       0.00900000
C       -1.21240000       2.04420000       0.03130000
C       -0.81440000       3.33090000       0.03200000
C        0.64830000       3.36280000       0.01070000
C        1.79910000       4.10060000      -0.00270000
N        2.86820000       3.21900000      -0.02270000
N        2.43770000       1.99790000      -0.02250000
N        1.08370000       2.07400000      -0.00230000
H       -2.21810000       1.65210000       0.04420000
H       -1.44480000       4.20860000       0.04580000
H        1.95740000       5.16600000       0.00030000
