19
Properties=species:S:1:pos:R:3 gdb_88288=T pbc="F F F"
C        0.36840000       1.40820000      -0.57660000
C       -0.05000000       0.06210000      -0.04900000
O        0.96040000      -0.91840000       0.13120000
C        0.30320000      -0.45300000       1.30350000
C        1.10340000       0.37130000       2.27780000
O        2.15780000       0.89250000       1.97440000
C        0.50350000       0.51980000       3.63340000
C        1.46770000       0.57670000       4.81390000
C        0.77690000       1.81970000       4.37710000
H        1.28050000       1.75050000      -0.08690000
H        0.55190000       1.33880000      -1.65390000
H       -0.42960000       2.14210000      -0.42020000
H       -0.97810000      -0.33610000      -0.46640000
H       -0.37970000      -1.17170000       1.75890000
H       -0.45460000       0.04000000       3.79850000
H        1.15230000       0.09050000       5.72970000
H        2.51640000       0.47150000       4.56110000
H        1.36300000       2.55100000       3.83260000
H       -0.02750000       2.21700000       4.98520000
