20
Properties=species:S:1:pos:R:3 gdb_122034=T pbc="F F F"
C       -0.04080000       1.52800000       0.11190000
C        0.05970000       0.00250000       0.03160000
C        0.70430000      -0.48310000      -1.27180000
C        0.81020000      -2.00950000      -1.34280000
C        1.47510000      -2.52250000      -2.65240000
C        1.60140000      -4.05090000      -2.57390000
O        2.56840000      -4.59600000      -2.11990000
C        0.71300000      -2.13520000      -3.83830000
N        0.09550000      -1.86090000      -4.77620000
H        0.94930000       1.99370000       0.05620000
H       -0.64160000       1.92880000      -0.71160000
H       -0.50600000       1.84580000       1.04970000
H        0.63810000      -0.37410000       0.88540000
H       -0.94190000      -0.43730000       0.12460000
H        0.12340000      -0.11660000      -2.12720000
H        1.70730000      -0.04610000      -1.36970000
H        1.41490000      -2.38780000      -0.51140000
H       -0.18530000      -2.45990000      -1.24890000
H        2.48930000      -2.11500000      -2.72250000
H        0.71090000      -4.61360000      -2.92560000
