19
Properties=species:S:1:pos:R:3 gdb_78990=T pbc="F F F"
C       -0.10900000       1.57480000       0.00110000
N        0.02310000       0.12750000       0.01450000
C        1.04050000      -0.50730000      -0.84520000
C        2.46300000      -0.11900000      -0.33890000
C        2.22100000      -0.12750000       1.12940000
C        0.71200000      -0.51880000       1.14810000
C        1.18490000      -1.66200000       0.19570000
C        0.66630000      -3.05740000       0.10220000
N        2.67830000      -1.38020000       0.44340000
H        0.84650000       2.10190000       0.16160000
H       -0.52020000       1.89450000      -0.96200000
H       -0.80810000       1.88450000       0.78490000
H        0.83780000      -0.60230000      -1.91160000
H        3.28060000       0.38920000      -0.83470000
H        2.83540000       0.37350000       1.86700000
H        0.17810000      -0.62540000       2.09200000
H       -0.41370000      -3.05050000      -0.07640000
H        1.15210000      -3.59680000      -0.71790000
H        0.86310000      -3.60660000       1.02910000
