17
Properties=species:S:1:pos:R:3 gdb_4819=T pbc="F F F"
C       -0.04430000       1.39470000       0.03950000
O       -0.07950000      -0.01450000      -0.03540000
C        0.58120000      -0.56840000      -1.08900000
C        0.64040000      -1.92970000      -1.30380000
N        1.37040000      -2.13640000      -2.45490000
C        1.72150000      -3.43300000      -2.98930000
C        1.77260000      -0.93230000      -2.95700000
C        1.30000000       0.07260000      -2.13700000
H        0.98410000       1.77030000       0.13290000
H       -0.50890000       1.85950000      -0.84110000
H       -0.60940000       1.67420000       0.93100000
H        0.22600000      -2.74750000      -0.73890000
H        0.83630000      -4.07350000      -3.05230000
H        2.12810000      -3.30770000      -3.99480000
H        2.47210000      -3.93690000      -2.36900000
H        2.36420000      -0.88230000      -3.85750000
H        1.44520000       1.12980000      -2.28610000
