14
Properties=species:S:1:pos:R:3 gdb_124427=T pbc="F F F"
C       -0.02920000       1.57620000      -0.00330000
C        0.05790000       0.03040000      -0.00030000
C        0.67670000      -0.45650000      -1.23930000
N        1.17840000      -0.81700000      -2.21530000
C        0.81020000      -0.48310000       1.20040000
N        0.19000000      -0.79340000       2.30710000
O        1.16160000      -1.16590000       3.18780000
N        2.40230000      -1.09330000       2.62210000
C        2.20690000      -0.67540000       1.40310000
H        0.96770000       2.02180000      -0.04310000
H       -0.59870000       1.92020000      -0.86950000
H       -0.52840000       1.90960000       0.90890000
H       -0.95730000      -0.37720000       0.05090000
H        3.02800000      -0.53820000       0.71700000
