18
Properties=species:S:1:pos:R:3 gdb_101466=T pbc="F F F"
O        0.01330000       1.46010000      -0.02780000
C        0.05910000       0.06160000       0.16530000
C       -1.32720000      -0.55330000      -0.04560000
O       -1.83910000      -0.15380000      -1.31550000
C       -1.34050000      -2.08210000       0.08510000
C       -2.76420000      -2.69520000       0.04180000
O       -2.68510000      -3.69810000      -1.00580000
C       -1.46880000      -3.53650000      -1.55930000
N       -0.64940000      -2.69800000      -1.07140000
H       -0.52750000       1.59090000      -0.81740000
H        0.77600000      -0.42430000      -0.51570000
H        0.40090000      -0.11630000       1.19140000
H       -2.01400000      -0.11970000       0.69160000
H       -1.35020000      -0.67010000      -1.97210000
H       -0.80800000      -2.36200000       1.00240000
H       -3.06460000      -3.19310000       0.96500000
H       -3.52140000      -1.96350000      -0.25250000
H       -1.27590000      -4.17560000      -2.41450000
