16
Properties=species:S:1:pos:R:3 gdb_18903=T pbc="F F F"
C        0.00520000       1.56760000      -0.03400000
C        0.03720000       0.07050000      -0.06720000
C        0.61490000      -0.88560000      -1.16480000
C       -0.44340000      -1.88730000      -0.76460000
C        0.91440000      -1.87380000      -0.06150000
C        0.56140000      -0.87440000       1.07220000
O       -0.77700000      -1.16990000       1.52850000
C       -1.18110000      -0.89160000       0.16980000
H        1.01640000       1.98840000      -0.07100000
H       -0.55460000       1.97290000      -0.88460000
H       -0.47470000       1.91930000       0.88590000
H        1.10350000      -0.70770000      -2.11180000
H       -0.82100000      -2.74670000      -1.30080000
H        1.58360000      -2.72280000      -0.05570000
H        1.26710000      -0.63190000       1.86600000
H       -2.24020000      -0.66660000       0.04970000
