14
Properties=species:S:1:pos:R:3 gdb_19006=T pbc="F F F"
O       -0.06300000       0.00920000      -0.04070000
C        0.01180000       1.19940000      -0.00530000
O       -1.07540000       2.04620000       0.00630000
C       -0.45850000       3.33910000       0.05190000
C        0.78320000       3.36520000      -0.88030000
C        1.47780000       4.33330000       0.10550000
C        0.75940000       3.30950000       1.01500000
C        1.18780000       2.15120000       0.03770000
H       -1.20740000       4.12750000       0.06570000
H        0.78920000       3.37700000      -1.97020000
H        2.56900000       4.30860000       0.11850000
H        1.10690000       5.36220000       0.13110000
H        0.73790000       3.25720000       2.10350000
H        2.19340000       1.73920000       0.03830000
