17
Properties=species:S:1:pos:R:3 gdb_94411=T pbc="F F F"
C       -0.33090000       1.43550000      -0.05680000
C        0.18130000       0.01170000      -0.09790000
O        1.44540000      -0.10530000      -0.79270000
C        2.05120000      -0.78420000       0.32040000
C        0.79160000      -0.60780000       1.18650000
C        0.77530000       0.03480000       2.57950000
O        0.13470000      -1.16460000       3.13070000
C        0.13060000      -1.78030000       1.90340000
O       -0.28040000      -2.85970000       1.62370000
H        0.39460000       2.10630000       0.41330000
H       -0.50720000       1.78780000      -1.07770000
H       -1.27800000       1.49360000       0.49020000
H       -0.56570000      -0.65640000      -0.54740000
H        2.29430000      -1.82850000       0.09000000
H        2.94950000      -0.27090000       0.68400000
H        1.75050000       0.19990000       3.04360000
H        0.13420000       0.90880000       2.70970000
