21
Properties=species:S:1:pos:R:3 gdb_63376=T pbc="F F F"
C       -0.01420000       1.56880000      -0.03520000
C        0.05250000       0.04230000       0.00710000
O       -1.28480000      -0.49890000      -0.02370000
C        0.80350000      -0.58940000      -1.18370000
C        1.53050000      -1.83710000      -0.63120000
C        0.76790000      -3.14200000      -0.89380000
O        2.82460000      -1.88530000      -1.24120000
C        1.60370000      -1.52600000       0.85480000
C        0.81920000      -0.50960000       1.19750000
H        0.98790000       2.00880000      -0.03400000
H       -0.54410000       1.90100000      -0.93300000
H       -0.55240000       1.95730000       0.83810000
H       -1.72010000      -0.25340000       0.79990000
H        0.11660000      -0.81610000      -2.00180000
H        1.56940000       0.09780000      -1.55040000
H        0.75280000      -3.35450000      -1.96760000
H        1.24380000      -3.98790000      -0.38150000
H       -0.26050000      -3.05910000      -0.53340000
H        3.22800000      -2.72940000      -1.01250000
H        2.21520000      -2.11680000       1.53040000
H        0.68010000      -0.12120000       2.20250000
