18
Properties=species:S:1:pos:R:3 gdb_53025=T pbc="F F F"
C       -0.02100000       1.46510000       0.00780000
C        0.01080000       0.01050000       0.01420000
C        0.03750000      -1.19510000       0.02010000
C        0.07230000      -2.62960000       0.03140000
C        0.76740000      -3.61050000       0.98050000
N        0.10550000      -4.59370000       0.02680000
C       -1.12020000      -3.65090000      -0.08380000
C       -1.08020000      -3.69700000      -1.61230000
C        0.37660000      -3.62310000      -1.15130000
H        0.99080000       1.88490000      -0.01360000
H       -0.55650000       1.84600000      -0.86890000
H       -0.52410000       1.85610000       0.89920000
H        1.86140000      -3.64830000       0.96190000
H        0.39470000      -3.67550000       2.00790000
H       -1.95980000      -3.74950000       0.60670000
H       -1.39020000      -4.63890000      -2.07150000
H       -1.47470000      -2.82820000      -2.14290000
H        1.30490000      -3.68890000      -1.72160000
