17
Properties=species:S:1:pos:R:3 gdb_35188=T pbc="F F F"
C       -0.10470000      -1.17680000      -0.07000000
C       -0.03650000       0.02280000      -0.02330000
C        0.04360000       1.45560000      -0.00480000
N        0.61770000       2.09370000       1.22060000
C        1.34780000       2.17260000      -0.03140000
C        2.79130000       1.64360000      -0.18370000
C        3.11490000       2.94620000      -0.93630000
N        2.21490000       2.98390000      -2.11320000
C        1.71500000       3.43670000      -0.78570000
H       -0.16240000      -2.23640000      -0.10400000
H       -0.78880000       1.96740000      -0.48370000
H        0.12250000       2.96520000       1.40200000
H        3.28390000       1.56580000       0.78780000
H        2.92050000       0.72160000      -0.75380000
H        4.04330000       3.50240000      -0.92480000
H        2.44640000       3.82730000      -2.63970000
H        1.32440000       4.43740000      -0.63960000
