20
Properties=species:S:1:pos:R:3 gdb_63755=T pbc="F F F"
C       -0.24530000       1.57410000      -0.13430000
C       -0.06870000       0.07800000       0.03790000
C       -1.24940000      -0.74150000      -0.43770000
O        1.18250000      -0.35270000      -0.70530000
C        1.80030000      -0.47990000       0.49970000
N        2.96800000      -0.29070000       0.94200000
C        2.73220000      -0.11340000       2.40770000
C        1.22860000       0.34420000       2.56150000
C        0.60420000      -0.41040000       1.37760000
H        0.65200000       2.11660000       0.17370000
H       -0.44460000       1.81390000      -1.18280000
H       -1.08970000       1.92670000       0.46650000
H       -1.47180000      -0.52350000      -1.48660000
H       -1.04330000      -1.81090000      -0.34440000
H       -2.13620000      -0.50350000       0.15910000
H        2.92250000      -1.04850000       2.95160000
H        3.43090000       0.63440000       2.79170000
H        0.79720000       0.09310000       3.53340000
H        1.16710000       1.42920000       2.43010000
H        0.19880000      -1.38380000       1.66760000
