17
Properties=species:S:1:pos:R:3 gdb_52247=T pbc="F F F"
O       -0.14440000       0.12650000       0.45470000
C        0.02320000       1.18730000      -0.08460000
C        1.39110000       1.81460000      -0.29480000
O        1.21000000       3.05490000      -0.93190000
C        2.39730000       3.76040000      -1.15470000
C        3.37750000       3.30510000      -2.30860000
C        3.19410000       4.70430000      -2.90870000
O        1.80560000       4.83230000      -3.21500000
C        2.21900000       5.09750000      -1.87320000
H       -0.81420000       1.80360000      -0.47850000
H        1.88660000       1.92080000       0.68530000
H        2.00670000       1.12450000      -0.89440000
H        2.95650000       3.89260000      -0.21550000
H        4.38470000       3.08200000      -1.95110000
H        3.01350000       2.49970000      -2.94990000
H        3.89360000       5.31110000      -3.47020000
H        1.96340000       6.06300000      -1.45320000
