19
Properties=species:S:1:pos:R:3 gdb_50360=T pbc="F F F"
O        0.78340000      -0.22940000       0.48750000
C        0.40120000       0.90820000       0.41830000
C        1.23250000       2.11320000      -0.00550000
C        1.46260000       3.09690000       1.17660000
C        2.86920000       2.73410000       1.66300000
C        3.02960000       1.47830000       2.57380000
C        3.74180000       0.72270000       1.41360000
C        3.50480000       1.94230000       0.48070000
O        2.50130000       1.77820000      -0.51600000
H       -0.65350000       1.18220000       0.66570000
H        0.65790000       2.59910000      -0.80830000
H        1.43470000       4.12430000       0.80420000
H        0.70040000       3.00570000       1.95670000
H        3.42120000       3.61110000       2.00410000
H        3.64140000       1.64560000       3.46290000
H        2.08500000       1.03110000       2.89440000
H        4.79910000       0.51740000       1.59800000
H        3.24900000      -0.18540000       1.06740000
H        4.38820000       2.35120000      -0.01590000
