15
Properties=species:S:1:pos:R:3 gdb_2836=T pbc="F F F"
C        0.26760000       1.55730000       0.08020000
C       -0.24190000       0.13640000      -0.13790000
N        0.49790000      -0.49760000      -1.23340000
C        1.71230000      -1.21160000      -0.89440000
C        0.48710000      -1.96140000      -1.33230000
C       -0.21710000      -2.77080000      -0.36650000
N       -0.80520000      -3.42450000       0.38560000
H        1.32050000       1.55660000       0.38070000
H        0.17680000       2.14600000      -0.83670000
H       -0.30780000       2.04930000       0.86960000
H       -0.17080000      -0.44210000       0.79700000
H       -1.29850000       0.15070000      -0.42590000
H        2.54420000      -1.11330000      -1.58570000
H        1.98510000      -1.30030000       0.15610000
H        0.42990000      -2.34670000      -2.34660000
