16
Properties=species:S:1:pos:R:3 gdb_55074=T pbc="F F F"
N        0.35790000       0.67390000      -0.57770000
C        0.02890000      -0.24370000       0.36940000
O        0.75700000      -0.52680000       1.30230000
C       -1.33080000      -0.88980000       0.21240000
C       -1.89790000      -1.32450000      -1.12230000
C       -1.40670000      -2.35120000      -0.14930000
O       -0.23200000      -3.02550000      -0.53070000
C        0.57410000      -3.46140000       0.47970000
O        1.54850000      -4.11100000       0.25940000
H        1.24620000       1.14280000      -0.50450000
H       -0.27230000       0.92800000      -1.31690000
H       -2.03140000      -0.56130000       0.97460000
H       -2.96370000      -1.23710000      -1.29910000
H       -1.27420000      -1.19010000      -1.99960000
H       -2.12720000      -2.97890000       0.36730000
H        0.22260000      -3.14680000       1.47510000
