16
Properties=species:S:1:pos:R:3 gdb_42450=T pbc="F F F"
O        0.21760000       0.36310000      -0.79880000
C        0.01530000       1.14440000       0.09640000
O        0.95810000       1.60100000       0.95980000
C        2.29340000       1.12190000       0.71880000
C        3.03350000       2.00280000      -0.17610000
C        3.65500000       2.72920000      -0.90290000
N       -1.22380000       1.65140000       0.45490000
C       -1.52810000       3.07190000       0.47290000
C       -2.14370000       2.15580000      -0.54170000
H        2.76710000       1.08740000       1.70350000
H        2.24330000       0.11150000       0.30460000
H        4.20450000       3.36370000      -1.55380000
H       -2.10820000       3.41670000       1.32360000
H       -0.75380000       3.75460000       0.13450000
H       -1.78310000       2.21180000      -1.56500000
H       -3.17540000       1.83620000      -0.43040000
