20
Properties=species:S:1:pos:R:3 gdb_39743=T pbc="F F F"
C       -0.02250000       1.47120000       0.00280000
C        1.32080000       0.76590000       0.02370000
C        0.04560000      -0.02370000       0.00040000
C       -0.56610000      -0.90730000       1.06890000
C       -1.36070000      -1.64200000       0.03680000
C       -0.52080000      -0.96460000      -1.09090000
C        0.51710000      -2.03000000      -1.45520000
C        0.80510000      -2.67540000      -0.07390000
N       -0.34220000      -2.34180000       0.80440000
H       -0.35180000       1.96910000       0.91000000
H       -0.31890000       1.97560000      -0.91150000
H        1.92310000       0.80140000      -0.87900000
H        1.89740000       0.79220000       0.94330000
H       -0.81780000      -0.61640000       2.08400000
H       -2.38930000      -1.98120000       0.01530000
H       -1.03850000      -0.49060000      -1.92530000
H        0.09570000      -2.76000000      -2.15550000
H        1.41530000      -1.60470000      -1.91320000
H        0.88270000      -3.76450000      -0.13600000
H        1.73020000      -2.30010000       0.37260000
