15
Properties=species:S:1:pos:R:3 gdb_45893=T pbc="F F F"
O       -0.20680000       0.37610000       0.96890000
C       -0.06010000       1.23990000       0.15600000
O       -1.09030000       1.51840000      -0.73740000
C       -1.39610000       2.75480000      -1.25540000
N       -1.03530000       3.91450000      -0.92480000
C       -0.08010000       4.10530000       0.16600000
C        1.20850000       3.36770000      -0.11020000
C        1.88280000       2.54730000       0.94670000
N        1.11680000       1.91410000      -0.11400000
H       -2.12000000       2.61030000      -2.05360000
H        0.10690000       5.17710000       0.27390000
H       -0.50840000       3.75330000       1.11630000
H        1.81390000       3.77400000      -0.91720000
H        2.95550000       2.38720000       0.90500000
H        1.44840000       2.53200000       1.94250000
