15
Properties=species:S:1:pos:R:3 gdb_89216=T pbc="F F F"
O       -0.42030000       1.49720000       0.35850000
C       -0.08040000       0.17110000       0.07180000
C        0.48060000      -0.74670000       1.20970000
C       -0.65240000      -1.77730000       0.93570000
O       -0.22090000      -3.07290000       0.74980000
C       -1.29220000      -0.75970000      -0.08790000
O       -2.34080000      -0.48250000       0.88840000
C       -1.91250000      -1.46540000       1.75120000
O       -2.45020000      -1.86680000       2.73190000
H        0.39040000       2.00680000       0.45590000
H        0.55350000       0.08840000      -0.82340000
H        1.46260000      -1.17310000       0.99690000
H        0.47680000      -0.31070000       2.21020000
H       -0.98000000      -3.66700000       0.76300000
H       -1.71380000      -0.98520000      -1.06570000
