23
Properties=species:S:1:pos:R:3 gdb_101400=T pbc="F F F"
C       -0.13660000       1.58920000      -0.09210000
C       -0.06220000       0.06320000       0.02460000
C        0.76300000      -0.44800000       1.22140000
C        0.15430000      -0.05200000       2.57540000
C        0.93540000      -1.96960000       1.14290000
C        1.71660000      -2.62040000      -0.04640000
C        2.51100000      -3.52040000       0.94660000
C        1.95210000      -2.65050000       2.08270000
O        2.26650000      -2.48260000       3.22700000
H        0.86480000       2.03010000      -0.15460000
H       -0.68500000       1.88440000      -0.99220000
H       -0.64510000       2.04100000       0.76450000
H       -1.07820000      -0.35040000       0.09430000
H        0.36640000      -0.34080000      -0.90110000
H        1.76620000       0.00020000       1.15370000
H        0.74050000      -0.46850000       3.39770000
H        0.11830000       1.03420000       2.69660000
H       -0.87110000      -0.43190000       2.66390000
H       -0.04210000      -2.45700000       1.27000000
H        1.11630000      -3.13940000      -0.79430000
H        2.36280000      -1.89830000      -0.55230000
H        2.13300000      -4.54650000       1.00450000
H        3.59960000      -3.55770000       0.85960000
