16
Properties=species:S:1:pos:R:3 gdb_110760=T pbc="F F F"
C        0.25840000       0.93980000       0.45390000
O       -0.41330000       0.04380000      -0.41900000
C        0.42630000      -0.54550000      -1.34330000
C        1.39090000      -1.62790000      -0.98900000
O        0.87500000      -2.37620000       0.13860000
C       -0.23010000      -2.78270000      -0.60330000
O       -1.05270000      -3.58100000      -0.30020000
C        0.14480000      -1.95800000      -1.82810000
N       -0.03760000      -2.25200000      -3.19670000
H        1.02390000       0.41840000       1.04240000
H        0.73170000       1.76330000      -0.10020000
H       -0.49800000       1.35020000       1.12510000
H        0.76680000       0.10300000      -2.15520000
H        2.44700000      -1.70690000      -1.20360000
H        0.03720000      -3.24730000      -3.37800000
H       -0.94760000      -1.94260000      -3.52200000
