13
Properties=species:S:1:pos:R:3 gdb_20529=T pbc="F F F"
C       -0.00210000       1.52180000       0.00850000
C        0.08470000       0.01530000       0.00150000
O        1.11050000      -0.61220000      -0.00920000
N       -1.16030000      -0.66940000       0.00870000
C       -2.45620000      -0.18900000       0.02110000
N       -3.31350000      -1.16420000       0.02410000
N       -2.58650000      -2.35550000       0.01320000
C       -1.32650000      -2.04140000       0.00440000
H        1.01040000       1.92330000       0.00170000
H       -0.54530000       1.88400000      -0.87000000
H       -0.53050000       1.87660000       0.89890000
H       -2.69990000       0.86100000       0.02740000
H       -0.48790000      -2.71760000      -0.00520000
