19
Properties=species:S:1:pos:R:3 gdb_106272=T pbc="F F F"
C        0.12020000       1.39320000       0.11310000
C       -0.02480000      -0.07740000      -0.10940000
C        0.56580000      -1.00220000      -1.19410000
C       -0.06080000      -1.89960000      -0.10860000
C        0.10060000      -3.36630000       0.15340000
O        1.46370000      -3.71450000       0.31260000
O        0.54480000      -1.00110000       0.93440000
C       -1.30840000      -0.96800000      -0.07960000
O       -2.08780000      -0.94740000       1.06830000
H        1.17130000       1.66590000       0.24520000
H       -0.27630000       1.94250000      -0.74650000
H       -0.43760000       1.70030000       1.00320000
H        0.10020000      -0.99490000      -2.18330000
H        1.65420000      -1.02910000      -1.23400000
H       -0.49790000      -3.63760000       1.03790000
H       -0.28410000      -3.94000000      -0.69660000
H        1.83930000      -3.06940000       0.92370000
H       -1.96170000      -0.95670000      -0.95490000
H       -1.45030000      -0.95590000       1.79830000
