20
Properties=species:S:1:pos:R:3 gdb_121761=T pbc="F F F"
C        0.83630000       0.27340000       0.38790000
O        1.18900000       0.11940000      -0.97620000
C        0.15170000      -0.43190000      -1.76260000
C        0.08590000      -1.96620000      -1.74230000
O       -0.90460000      -2.56580000      -2.12030000
N        1.22690000      -2.56680000      -1.31240000
C        1.35260000      -4.01290000      -1.20010000
C        1.80060000      -4.66110000      -2.51270000
O        3.06410000      -4.18420000      -2.94460000
H       -0.02210000       0.95050000       0.50130000
H        0.58780000      -0.68780000       0.85990000
H        1.70080000       0.70670000       0.89580000
H       -0.83610000      -0.05280000      -1.47170000
H        0.33410000      -0.11980000      -2.79710000
H        1.97480000      -1.96140000      -1.01230000
H        2.08270000      -4.23100000      -0.41510000
H        0.38020000      -4.41940000      -0.90470000
H        1.91120000      -5.74010000      -2.36300000
H        1.02460000      -4.50270000      -3.27440000
H        2.94910000      -3.25820000      -3.18190000
