20
Properties=species:S:1:pos:R:3 gdb_97422=T pbc="F F F"
C        0.05900000       1.25440000      -0.22410000
N        0.10700000      -0.18970000      -0.14330000
C        0.57530000      -0.69310000       0.91060000
O        0.61860000      -2.02640000       1.08320000
C        1.32490000      -2.51470000       2.24670000
C        0.76140000      -3.89940000       2.63130000
C        1.80410000      -4.93930000       2.14900000
C        3.02040000      -4.09920000       1.85210000
C        2.77190000      -2.79300000       1.92100000
H        0.46370000       1.76900000       0.66390000
H        0.62130000       1.59380000      -1.10180000
H       -0.97710000       1.58350000      -0.36570000
H        0.96110000      -0.10960000       1.76360000
H        1.19580000      -1.77710000       3.04900000
H        0.65090000      -3.95510000       3.71760000
H       -0.22680000      -4.03910000       2.18970000
H        2.00190000      -5.70560000       2.90690000
H        1.47640000      -5.47590000       1.24930000
H        3.97760000      -4.53720000       1.58950000
H        3.48050000      -1.99820000       1.71740000
