20
Properties=species:S:1:pos:R:3 gdb_86440=T pbc="F F F"
C        0.01150000       1.53350000       0.07160000
C        0.03760000       0.01610000       0.02480000
C        0.68340000      -0.54580000      -1.24510000
C        0.94520000      -2.02960000      -1.13840000
N        0.90580000      -2.78780000      -2.15030000
O        1.32380000      -2.48240000       0.09590000
C        0.76900000      -1.82960000       1.25570000
C        1.59390000      -2.25620000       2.44820000
O        0.79540000      -0.44380000       1.14700000
H        1.02830000       1.93360000       0.01310000
H       -0.56740000       1.93070000      -0.76730000
H       -0.44230000       1.87950000       1.00390000
H       -0.99010000      -0.37550000       0.11480000
H        0.07690000      -0.36080000      -2.13330000
H        1.65030000      -0.04570000      -1.38580000
H        1.14810000      -3.74310000      -1.87680000
H       -0.27650000      -2.17500000       1.34150000
H        2.61930000      -1.89780000       2.33050000
H        1.16920000      -1.83300000       3.36130000
H        1.60220000      -3.34530000       2.52570000
