16
Properties=species:S:1:pos:R:3 gdb_49746=T pbc="F F F"
O        0.07550000      -0.06160000      -0.28120000
C        0.08240000       1.14700000      -0.21570000
N        1.17330000       1.89010000       0.16200000
C        2.48620000       1.43970000       0.23680000
C        3.31900000       2.44600000       0.63580000
C        3.87210000       3.24610000      -0.58920000
C        2.56880000       4.07320000      -0.39440000
C        1.29190000       3.34980000       0.21010000
C        2.44610000       3.66520000       1.05480000
H       -0.78480000       1.78460000      -0.46950000
H        2.74210000       0.53790000      -0.30600000
H        4.74700000       3.86970000      -0.37680000
H        4.02270000       2.69630000      -1.52250000
H        2.39570000       5.06290000      -0.80980000
H        0.36320000       3.91080000       0.20440000
H        2.51410000       4.23730000       1.97180000
