18
Properties=species:S:1:pos:R:3 gdb_46900=T pbc="F F F"
N       -0.03330000       0.64010000       1.06570000
C        0.01080000      -0.08130000       0.02500000
C       -1.33310000      -0.56170000      -0.53380000
O       -1.34810000      -1.74340000      -1.31580000
C       -0.64150000      -2.80220000      -0.74460000
C        0.06040000      -3.69280000      -1.71700000
C        0.86020000      -2.70820000      -0.88450000
C        1.33430000      -1.42610000      -1.51890000
O        1.18630000      -0.30830000      -0.62290000
H        0.90550000       0.96750000       1.30300000
H       -2.00170000      -0.64410000       0.33110000
H       -1.72900000       0.22350000      -1.18680000
H       -1.07740000      -3.22270000       0.16080000
H        0.14480000      -4.74670000      -1.47970000
H       -0.07880000      -3.47060000      -2.76940000
H        1.47860000      -3.10080000      -0.08380000
H        2.40400000      -1.45290000      -1.73940000
H        0.79530000      -1.23140000      -2.45000000
