18
Properties=species:S:1:pos:R:3 gdb_72817=T pbc="F F F"
C        0.09890000       1.49150000      -0.26370000
C       -0.07630000       0.00640000       0.01570000
C        0.51120000      -0.93770000      -1.08000000
C        1.65350000      -1.26080000      -0.07720000
N        0.89920000      -0.54440000       0.99520000
C        0.21800000      -1.34240000       1.91630000
O        0.68840000      -2.13680000       2.67860000
O       -1.12840000      -1.09920000       1.82860000
C       -1.43890000      -0.33090000       0.66170000
H        1.10510000       1.70710000      -0.63490000
H       -0.62030000       1.82370000      -1.02110000
H       -0.06190000       2.07650000       0.64670000
H       -0.12560000      -1.80020000      -1.29230000
H        0.79770000      -0.46280000      -2.02040000
H        1.83830000      -2.31020000       0.15990000
H        2.60340000      -0.76800000      -0.29650000
H       -1.97730000       0.56940000       0.97310000
H       -2.08990000      -0.92170000       0.00810000
