19
Properties=species:S:1:pos:R:3 gdb_24128=T pbc="F F F"
C       -0.12380000       1.63740000       0.09210000
N       -0.21670000       0.25240000      -0.37990000
C       -0.18880000      -0.78190000       0.64900000
C       -1.45290000      -0.45510000      -0.06800000
C        1.30560000       2.06850000       0.17260000
C        1.97980000       2.87460000       1.06380000
C        3.32780000       2.97700000       0.61640000
C        3.43640000       2.22500000      -0.53040000
N        2.20230000       1.68920000      -0.79470000
H       -0.68510000       2.25310000      -0.62510000
H       -0.59940000       1.78390000       1.07690000
H        0.36780000      -1.68160000       0.40330000
H       -0.10280000      -0.46250000       1.68590000
H       -2.21810000       0.08100000       0.49100000
H       -1.83390000      -1.11120000      -0.84560000
H        1.54890000       3.34470000       1.93530000
H        4.12380000       3.53530000       1.08480000
H        4.28060000       2.02070000      -1.16930000
H        1.97340000       1.02920000      -1.51870000
