18
Properties=species:S:1:pos:R:3 gdb_72448=T pbc="F F F"
C        0.04160000       1.47480000       0.02200000
C       -0.03250000      -0.02560000       0.02510000
O        0.64470000      -0.58760000      -1.11850000
C        1.04540000      -1.90270000      -0.69690000
C        0.46250000      -1.96820000       0.73770000
O        0.63860000      -0.60450000       1.12840000
C       -1.05640000      -2.07460000       0.55670000
N       -1.81820000      -1.13850000       1.40900000
C       -1.40350000      -0.72720000       0.05170000
H        1.08450000       1.79720000       0.05710000
H       -0.41910000       1.86830000      -0.88760000
H       -0.49040000       1.87050000       0.89030000
H        0.62870000      -2.66160000      -1.36870000
H        2.13860000      -1.97410000      -0.69900000
H        0.95380000      -2.63710000       1.44240000
H       -1.50780000      -2.98450000       0.17870000
H       -2.79870000      -1.41080000       1.37070000
H       -2.12460000      -0.54760000      -0.73630000
