21
Properties=species:S:1:pos:R:3 gdb_69000=T pbc="F F F"
C        0.03090000       1.53850000       0.03570000
C       -0.09620000       0.05610000       0.17140000
C       -1.33300000      -0.82220000      -0.08700000
C       -0.75080000      -1.86830000       0.92520000
C        0.45290000      -0.92880000       1.13280000
O        1.04080000      -0.75680000      -0.17440000
C        1.34570000      -0.79820000       2.30470000
C        0.85210000      -1.10160000       3.70040000
C        1.83240000      -2.03050000       3.03570000
H        0.98130000       1.88580000       0.44990000
H       -0.00600000       1.83490000      -1.01920000
H       -0.78650000       2.04850000       0.55590000
H       -2.26560000      -0.37310000       0.26450000
H       -1.45430000      -1.15410000      -1.12110000
H       -1.38010000      -1.98790000       1.81030000
H       -0.49730000      -2.85140000       0.52140000
H        2.06020000       0.01340000       2.20940000
H        1.20280000      -0.46700000       4.50650000
H       -0.17000000      -1.44420000       3.81890000
H        1.46510000      -2.99300000       2.69660000
H        2.85870000      -2.04210000       3.38460000
