18
Properties=species:S:1:pos:R:3 gdb_35536=T pbc="F F F"
N       -0.12540000      -1.18230000      -0.20750000
C       -0.06930000      -0.03110000      -0.11590000
C        0.00480000       1.42360000       0.01070000
C       -0.67950000       1.95650000       1.32750000
C        0.13550000       3.22290000       1.64340000
C        0.98460000       3.49190000       2.93900000
C        2.24800000       3.70650000       2.02050000
C        1.45360000       2.97650000       0.96380000
C        1.44870000       1.94550000       0.12930000
H       -0.49690000       1.84590000      -0.87190000
H       -1.75090000       2.12170000       1.19190000
H       -0.54980000       1.20800000       2.11510000
H       -0.36890000       4.14060000       1.31820000
H        0.68370000       4.33280000       3.56720000
H        1.08510000       2.59300000       3.55190000
H        2.39700000       4.76740000       1.79510000
H        3.20050000       3.27290000       2.33150000
H        2.28270000       1.45500000      -0.35530000
