24
Properties=species:S:1:pos:R:3 gdb_9679=T pbc="F F F"
C        0.39310000       1.57290000       0.07810000
C       -0.13930000       0.14420000      -0.08990000
C        0.49380000      -0.56940000      -1.26810000
C        1.81540000      -1.29550000      -1.13440000
C        0.55240000      -2.07480000      -1.43800000
C       -0.01620000      -2.98360000      -0.36250000
C        0.38970000      -2.59860000      -2.86160000
C        1.13640000      -3.90720000      -3.15050000
H        1.47580000       1.57120000       0.24170000
H        0.19580000       2.17550000      -0.81560000
H       -0.07730000       2.07570000       0.92910000
H        0.03990000      -0.41490000       0.83510000
H       -1.22940000       0.17580000      -0.22030000
H        0.36650000      -0.02480000      -2.20290000
H        2.55980000      -1.18080000      -1.91630000
H        2.23650000      -1.38480000      -0.13680000
H        0.11200000      -2.56770000       0.63950000
H       -1.08870000      -3.15530000      -0.51670000
H        0.47790000      -3.96100000      -0.36990000
H       -0.68010000      -2.73590000      -3.07320000
H        0.74060000      -1.82980000      -3.56100000
H        1.03150000      -4.19030000      -4.20260000
H        2.20560000      -3.80570000      -2.93510000
H        0.75380000      -4.73760000      -2.54920000
