13
Properties=species:S:1:pos:R:3 gdb_5653=T pbc="F F F"
C       -0.06490000       1.50210000       0.01070000
C        1.41930000       1.86520000      -0.00180000
C        2.20840000       0.76530000      -0.01500000
C        1.30820000      -0.36930000      -0.01210000
C        0.00620000       0.00740000       0.00240000
N       -0.80310000      -1.11140000       0.00450000
C        0.05070000      -2.09100000      -0.00880000
O        1.37540000      -1.72360000      -0.01970000
H       -0.56720000       1.91030000       0.89690000
H       -0.58420000       1.91930000      -0.86130000
H        1.76770000       2.88930000       0.00010000
H        3.28850000       0.73920000      -0.02560000
H       -0.14540000      -3.15110000      -0.01240000
