13
Properties=species:S:1:pos:R:3 gdb_9998=T pbc="F F F"
O        0.06310000       0.37680000       1.18900000
C       -0.02410000       1.24150000       0.34510000
N        1.02730000       1.73670000      -0.36710000
C        2.33910000       1.13550000      -0.27880000
C        2.96490000       1.04310000      -1.67900000
O        2.43400000       1.48070000      -2.66340000
C        3.28430000       1.85600000       0.58000000
C        4.10200000       2.44550000       1.23340000
H       -0.97640000       1.73240000       0.06910000
H        0.85870000       2.31620000      -1.17720000
H        2.21340000       0.11630000       0.11520000
H        3.96350000       0.56480000      -1.69960000
H        4.80480000       2.96560000       1.83710000
