18
Properties=species:S:1:pos:R:3 gdb_93520=T pbc="F F F"
C        0.02280000       1.56980000      -0.02130000
C        0.02230000       0.04490000       0.05010000
N        0.62880000      -0.53020000      -1.15170000
C        1.54240000      -1.54330000      -1.24420000
O        2.08640000      -1.87090000      -2.26740000
O        1.85440000      -2.17920000      -0.07040000
C        0.98610000      -1.99220000       1.05630000
C        0.76830000      -0.50270000       1.27960000
O        1.99770000       0.15310000       1.52700000
H        1.04590000       1.95040000      -0.01630000
H       -0.48540000       1.91540000      -0.92770000
H       -0.50730000       1.98930000       0.83900000
H       -1.01920000      -0.30410000       0.12990000
H        0.44960000      -0.08380000      -2.03780000
H        0.03500000      -2.51400000       0.89180000
H        1.50340000      -2.45040000       1.90140000
H        0.14390000      -0.34160000       2.16450000
H        2.66740000      -0.25650000       0.96580000
