20
Properties=species:S:1:pos:R:3 gdb_67738=T pbc="F F F"
C       -0.03640000       1.50950000       0.04550000
C       -0.04610000       0.01290000      -0.11080000
C        0.86340000      -0.67940000      -1.06380000
C        0.43560000      -1.92950000      -1.27530000
C       -0.73910000      -2.21630000      -0.36810000
C       -1.67480000      -3.34710000      -0.73640000
C       -0.12890000      -2.16120000       1.08500000
N       -0.39710000      -0.70460000       1.21500000
C       -1.27730000      -0.79760000       0.00650000
H        0.93700000       1.85900000       0.40590000
H       -0.24010000       2.00080000      -0.91220000
H       -0.79230000       1.82410000       0.76900000
H        1.76120000      -0.22230000      -1.46170000
H        0.94350000      -2.70070000      -1.84350000
H       -1.13180000      -4.29570000      -0.81640000
H       -2.45900000      -3.47500000       0.01720000
H       -2.16070000      -3.16110000      -1.70040000
H       -0.77170000      -2.67410000       1.80650000
H        0.91170000      -2.47690000       1.21610000
H       -2.30220000      -0.43480000      -0.01540000
