20
Properties=species:S:1:pos:R:3 gdb_97373=T pbc="F F F"
C       -0.43200000       1.28880000      -0.42770000
N        0.03160000      -0.05050000      -0.13080000
C        0.67170000      -0.64990000      -1.03010000
O        1.17170000      -1.88750000      -0.79850000
C        1.71970000      -2.58910000      -1.91210000
C        2.73740000      -3.58570000      -1.36980000
C        0.62490000      -3.28100000      -2.70770000
C       -0.68080000      -3.60230000      -2.12260000
O       -0.52090000      -2.49810000      -3.02570000
H       -0.16760000       1.64230000      -1.43790000
H       -1.52240000       1.33150000      -0.32510000
H       -0.01650000       1.99350000       0.30200000
H        0.89880000      -0.24680000      -2.02700000
H        2.22410000      -1.87180000      -2.57730000
H        3.19430000      -4.15140000      -2.18710000
H        3.52620000      -3.06120000      -0.82570000
H        2.25420000      -4.28910000      -0.68590000
H        0.99560000      -3.89520000      -3.53080000
H       -1.25340000      -4.44000000      -2.51620000
H       -0.88040000      -3.32490000      -1.09110000
