19
Properties=species:S:1:pos:R:3 gdb_38947=T pbc="F F F"
C       -0.08690000       1.57960000       0.04180000
C        1.45290000       1.42080000       0.01020000
O        1.72010000       0.79600000       1.27730000
C        0.77050000      -0.30720000       1.26730000
C        1.53560000      -1.62440000       1.11440000
C        2.60880000      -1.45020000       0.03440000
O        2.11320000      -0.82130000      -1.14790000
C        1.20510000       0.22090000      -0.96230000
C       -0.01940000       0.02860000      -0.01060000
H       -0.49340000       2.04470000       0.94130000
H       -0.51610000       2.01980000      -0.86000000
H        2.16080000       2.22870000      -0.16470000
H        0.17200000      -0.27070000       2.18290000
H        2.02160000      -1.90770000       2.05400000
H        0.83250000      -2.42340000       0.85040000
H        3.43740000      -0.86230000       0.44510000
H        3.00220000      -2.41810000      -0.28970000
H        0.91220000       0.56000000      -1.95740000
H       -0.86710000      -0.60760000      -0.26080000
