17
Properties=species:S:1:pos:R:3 gdb_34730=T pbc="F F F"
N       -0.04600000      -1.16300000      -0.11260000
C       -0.00760000      -0.00970000      -0.05400000
C        0.00400000       1.45020000       0.03660000
C       -0.48520000       2.02140000       1.39530000
C        0.67250000       1.57930000       2.31450000
C        1.79830000       2.09980000       1.42900000
C        1.28270000       3.30020000       0.71250000
C       -0.16010000       3.51190000       1.15880000
N        1.38910000       1.99660000       0.00010000
H       -0.56280000       1.85300000      -0.80880000
H       -1.49750000       1.76700000       1.70080000
H        0.64440000       2.07510000       3.28910000
H        0.71130000       0.49790000       2.46900000
H        2.84540000       1.93110000       1.64410000
H        1.91160000       4.10290000       0.34890000
H       -0.78710000       3.97330000       0.38960000
H       -0.23280000       4.10830000       2.07310000
