20
Properties=species:S:1:pos:R:3 gdb_62706=T pbc="F F F"
C       -0.02510000       1.51100000       0.05320000
C       -0.02720000      -0.01430000       0.01490000
O       -1.34630000      -0.51870000       0.14960000
C        0.70820000      -0.55520000      -1.21190000
C        1.93080000      -0.83160000      -0.38680000
C        1.10320000      -0.65000000       0.91510000
C        0.71840000      -2.07140000       1.32680000
C        0.57250000      -2.78280000      -0.04400000
N        1.23260000      -1.91620000      -1.04970000
H        0.98360000       1.91440000      -0.07060000
H       -0.66030000       1.91330000      -0.74260000
H       -0.41210000       1.87230000       1.01460000
H       -1.78560000      -0.03990000       0.86060000
H        0.60680000      -0.17360000      -2.22340000
H        2.97820000      -0.62800000      -0.57150000
H        1.49350000      -0.01390000       1.71070000
H        1.50720000      -2.52620000       1.93570000
H       -0.21250000      -2.09330000       1.89900000
H        1.07630000      -3.75360000      -0.05830000
H       -0.47250000      -2.93050000      -0.32100000
