17
Properties=species:S:1:pos:R:3 gdb_3318=T pbc="F F F"
C        0.03010000       1.51100000       0.11670000
C       -0.12110000      -0.00120000      -0.07510000
C        0.68130000      -0.54080000      -1.25340000
C        2.25860000      -0.55050000      -1.16590000
C        2.21140000      -2.07060000      -1.36050000
O        1.42520000      -2.60810000      -0.28940000
C        0.74240000      -2.07040000      -1.42890000
H        1.07540000       1.78750000       0.29280000
H       -0.31160000       2.06100000      -0.76770000
H       -0.55410000       1.86240000       0.97270000
H        0.19630000      -0.53000000       0.83050000
H       -1.18120000      -0.24700000      -0.22380000
H        0.36560000      -0.06220000      -2.18750000
H        2.73190000      -0.01460000      -1.99180000
H        2.69950000      -0.22610000      -0.21950000
H        2.94160000      -2.73010000      -1.81500000
H        0.05240000      -2.72940000      -1.94450000
