23
Properties=species:S:1:pos:R:3 gdb_59768=T pbc="F F F"
C        0.25760000       1.55320000       0.07490000
C        0.23220000       0.02690000       0.10680000
O       -1.00390000      -0.45820000       0.62790000
C        0.50200000      -0.58900000      -1.28220000
O        1.62030000       0.07790000      -1.88230000
C        2.67300000      -0.84380000      -2.16180000
C        2.38620000      -2.07150000      -1.30350000
C        0.84850000      -2.10280000      -1.31410000
C        0.21860000      -3.00950000      -0.25770000
H        1.22540000       1.91980000      -0.27070000
H       -0.50730000       1.93640000      -0.61360000
H        0.05040000       1.95000000       1.07260000
H        0.99360000      -0.32890000       0.81190000
H       -1.71140000      -0.04530000       0.12010000
H       -0.38850000      -0.38840000      -1.89990000
H        2.67030000      -1.10400000      -3.23180000
H        3.62640000      -0.35510000      -1.93600000
H        2.83410000      -2.98660000      -1.69990000
H        2.75920000      -1.92730000      -0.28240000
H        0.53870000      -2.46880000      -2.30230000
H        0.51550000      -2.72410000       0.75530000
H       -0.87220000      -2.97640000      -0.29490000
H        0.53790000      -4.04450000      -0.42170000
