21
Properties=species:S:1:pos:R:3 gdb_68925=T pbc="F F F"
C       -0.10810000       1.49760000       0.02510000
C        0.05280000      -0.00240000       0.01340000
C        1.41660000      -0.63780000      -0.20090000
C        0.73210000      -0.72980000       1.14830000
O        1.23630000       0.10570000       2.16250000
C        0.14670000      -2.03180000       1.67080000
C       -0.87190000      -2.65460000       0.70560000
C       -1.76530000      -1.55380000       0.13980000
O       -1.01560000      -0.64210000      -0.64730000
H        0.73150000       1.97680000       0.53040000
H       -0.17320000       1.87310000      -1.00100000
H       -1.02850000       1.77930000       0.54770000
H        1.44870000      -1.51730000      -0.83500000
H        2.27870000       0.01790000      -0.26630000
H        2.08250000      -0.25820000       2.44580000
H        0.94710000      -2.74220000       1.91510000
H       -0.35730000      -1.78520000       2.61330000
H       -0.37050000      -3.16200000      -0.12690000
H       -1.47480000      -3.40640000       1.22640000
H       -2.52850000      -1.96000000      -0.53020000
H       -2.28060000      -1.02860000       0.96140000
