19
Properties=species:S:1:pos:R:3 gdb_17636=T pbc="F F F"
C       -0.33990000       1.79050000      -0.40480000
C       -0.08730000       0.30790000      -0.09390000
C       -1.39040000      -0.45120000       0.10880000
C       -1.44320000      -1.68010000       0.97960000
C       -2.10570000      -0.40060000       1.43300000
C        0.67040000      -0.33730000      -1.26080000
N        1.82600000      -0.98490000      -0.93090000
O        0.26410000      -0.27490000      -2.40600000
H        0.59950000       2.34720000      -0.48220000
H       -0.86480000       1.88220000      -1.35890000
H       -0.94880000       2.24720000       0.38050000
H        0.50810000       0.22680000       0.82540000
H       -2.01140000      -0.46770000      -0.78190000
H       -2.07080000      -2.50790000       0.66940000
H       -0.53420000      -1.98370000       1.48970000
H       -1.63750000       0.15020000       2.24300000
H       -3.18890000      -0.35110000       1.43410000
H        2.11730000      -1.11000000       0.02190000
H        2.31190000      -1.48830000      -1.65570000
