17
Properties=species:S:1:pos:R:3 gdb_31849=T pbc="F F F"
C       -0.07200000       1.39700000      -0.05340000
O       -0.01250000      -0.01430000       0.00630000
C        0.64430000      -0.57480000       1.06270000
C        1.26000000       0.12020000       2.09950000
N        1.88630000      -0.48180000       3.12020000
C        1.93860000      -1.81140000       3.14620000
N        2.65760000      -2.38980000       4.18840000
C        1.34720000      -2.60140000       2.14180000
C        0.69550000      -1.97390000       1.10130000
H        0.92960000       1.84340000      -0.11210000
H       -0.62710000       1.64140000      -0.96070000
H       -0.59660000       1.81840000       0.81460000
H        1.25390000       1.20490000       2.13010000
H        2.80290000      -1.74970000       4.95640000
H        2.33530000      -3.29730000       4.48940000
H        1.40960000      -3.68380000       2.18500000
H        0.22190000      -2.53860000       0.30570000
