25
Properties=species:S:1:pos:R:3 gdb_86903=T pbc="F F F"
C       -0.21560000       1.49220000       0.11170000
C        0.05410000       0.00120000      -0.01760000
C        1.24340000      -0.48260000      -0.89450000
C        1.53190000      -1.58610000       0.16070000
C        2.97970000      -1.92960000       0.49450000
C        3.11390000      -2.93070000       1.62400000
C        3.05390000      -4.41200000       1.34250000
C        4.35520000      -3.77290000       1.76470000
C        0.69230000      -0.76050000       1.17830000
H        0.68760000       2.02860000       0.42500000
H       -0.54450000       1.92290000      -0.84110000
H       -0.99630000       1.69410000       0.85410000
H       -0.86160000      -0.51430000      -0.33000000
H        1.03530000      -0.79290000      -1.92220000
H        2.04680000       0.26370000      -0.91360000
H        0.99190000      -2.50340000      -0.10230000
H        3.47540000      -2.32950000      -0.40140000
H        3.51670000      -1.00570000       0.75380000
H        2.65480000      -2.61270000       2.55730000
H        2.54340000      -5.05820000       2.04820000
H        2.95910000      -4.72600000       0.30760000
H        5.13050000      -3.66010000       1.01340000
H        4.73210000      -3.98050000       2.76030000
H        1.33380000      -0.09560000       1.76970000
H        0.02740000      -1.29700000       1.86040000
