15
Properties=species:S:1:pos:R:3 gdb_25067=T pbc="F F F"
O        0.11240000       0.00900000       0.33770000
C        0.00730000       1.20350000       0.14870000
N       -1.10330000       1.91870000      -0.28550000
C       -0.83820000       3.28650000      -0.33020000
C        0.44600000       3.46280000       0.04380000
C        1.27820000       4.70630000       0.12090000
C        2.02830000       4.82060000       1.37200000
C        2.65970000       4.87720000       2.39270000
N        0.96820000       2.19770000       0.31200000
H       -1.98310000       1.47000000      -0.46670000
H       -1.57420000       4.00770000      -0.64150000
H        1.98900000       4.74130000      -0.71810000
H        0.61890000       5.57270000      -0.00340000
H        3.20880000       4.94410000       3.29930000
H        1.86030000       2.01250000       0.73760000
