18
Properties=species:S:1:pos:R:3 gdb_112345=T pbc="F F F"
C        0.03860000       1.53740000       0.03920000
C       -0.04530000       0.01160000      -0.04490000
C        0.68570000      -0.54960000      -1.27050000
O        2.06610000      -0.20870000      -1.21420000
C        2.84590000      -1.36280000      -1.25200000
O        4.04290000      -1.30260000      -1.20580000
C        1.94540000      -2.50800000      -1.34720000
C        0.67380000      -2.06210000      -1.36830000
N       -0.49870000      -2.73810000      -1.51350000
H        1.08180000       1.85980000       0.07460000
H       -0.43120000       2.00820000      -0.83130000
H       -0.46830000       1.90690000       0.93510000
H        0.39110000      -0.44610000       0.85040000
H       -1.09760000      -0.30150000      -0.08420000
H        0.25960000      -0.11070000      -2.18510000
H        2.30350000      -3.52490000      -1.39480000
H       -0.49210000      -3.73750000      -1.38850000
H       -1.35260000      -2.28390000      -1.23370000
