19
Properties=species:S:1:pos:R:3 gdb_51312=T pbc="F F F"
O        0.08120000      -0.03750000      -0.67800000
C        0.05220000       1.05630000      -0.17590000
C        1.26610000       1.95320000       0.01190000
C        1.29380000       2.96180000      -1.11790000
C        0.91000000       4.23040000      -0.96450000
C        0.93790000       5.22720000      -2.09100000
O        1.61600000       4.76450000      -3.24020000
C        1.27710000       3.42740000      -3.56910000
C        1.73230000       2.46040000      -2.47480000
H       -0.90920000       1.51930000       0.14360000
H        1.18900000       2.46450000       0.97720000
H        2.16380000       1.32650000      -0.00110000
H        0.56280000       4.59920000      -0.00190000
H       -0.09760000       5.52570000      -2.34360000
H        1.45830000       6.14050000      -1.77770000
H        0.18890000       3.33390000      -3.71980000
H        1.76920000       3.21270000      -4.52140000
H        2.82550000       2.35370000      -2.49450000
H        1.32190000       1.45990000      -2.66010000
