18
Properties=species:S:1:pos:R:3 gdb_86492=T pbc="F F F"
C       -0.58170000       1.34480000       0.13250000
C       -0.00380000      -0.05400000      -0.02350000
C        0.81950000      -0.30540000      -1.31740000
C        2.07030000      -0.40810000      -0.37030000
N        1.20140000      -0.35300000       0.80960000
C        2.85490000      -1.70420000      -0.51360000
O        3.49750000      -1.98390000      -1.49310000
C        3.01200000       0.77130000      -0.55260000
O        3.02270000       1.72330000       0.18550000
H        0.18390000       2.10880000      -0.03460000
H       -1.39800000       1.50700000      -0.57970000
H       -0.98650000       1.48340000       1.14100000
H       -0.79010000      -0.79890000       0.14330000
H        0.59880000      -1.22980000      -1.85280000
H        0.84590000       0.52090000      -2.03130000
H        1.46050000       0.41090000       1.43030000
H        2.76800000      -2.37430000       0.36900000
H        3.68890000       0.68590000      -1.42660000
