18
Properties=species:S:1:pos:R:3 gdb_80047=T pbc="F F F"
C       -0.19900000       1.51270000      -0.02980000
N        0.05670000       0.08150000       0.05620000
C        1.37920000      -0.51380000      -0.18350000
C        2.58870000       0.36840000      -0.10030000
C        2.72390000       0.89300000       1.12110000
C        1.66510000       0.37240000       2.03550000
C        1.85690000       0.16360000       3.47970000
O        1.08610000       1.26440000       3.00580000
C        0.76190000      -0.50150000       1.18690000
H        0.62830000       2.15720000       0.29350000
H       -0.44610000       1.75760000      -1.06770000
H       -1.06880000       1.73900000       0.59300000
H        1.38280000      -1.38540000      -0.83140000
H        3.22430000       0.57790000      -0.95250000
H        3.45340000       1.62730000       1.44160000
H        1.29390000      -0.62460000       3.98050000
H        2.81080000       0.41870000       3.94010000
H        0.29250000      -1.36620000       1.64750000
