18
Properties=species:S:1:pos:R:3 gdb_37327=T pbc="F F F"
N       -0.01470000       1.49940000       0.01970000
C        1.27150000       0.79640000      -0.01810000
C       -0.02300000       0.03390000      -0.02690000
C       -0.47910000      -0.65770000      -1.28080000
N       -0.90610000       0.14910000      -2.42830000
C        0.35900000      -0.58580000      -2.52590000
C        1.65380000       0.17650000      -2.51690000
N        1.62400000       1.63880000      -2.41150000
C        2.11040000       0.86740000      -1.26310000
H       -0.20870000       1.81820000       0.96480000
H        1.85280000       0.74930000       0.90040000
H       -0.27280000      -0.50300000       0.88580000
H       -0.99480000      -1.59850000      -1.09990000
H       -1.63210000      -0.33940000      -2.94480000
H        0.38120000      -1.48040000      -3.14460000
H        2.43160000      -0.27350000      -3.13040000
H        2.40860000       2.03870000      -2.91840000
H        3.18130000       0.86090000      -1.07130000
