23
Properties=species:S:1:pos:R:3 gdb_120547=T pbc="F F F"
C        0.34660000       1.12580000       0.22700000
C        0.01550000      -0.36230000       0.08190000
C       -1.46060000      -0.60510000      -0.17680000
C       -2.00970000      -2.04370000      -0.06130000
C       -2.95260000      -1.44930000       1.00290000
C       -2.89440000      -2.01300000       2.41050000
O       -3.55300000      -3.25870000       2.40450000
C       -3.56590000      -3.88070000       3.66670000
O       -2.30000000      -0.16350000       0.92680000
H        1.40650000       1.27720000       0.45170000
H        0.11730000       1.67420000      -0.69340000
H       -0.24180000       1.56800000       1.03590000
H        0.58610000      -0.80440000      -0.74610000
H        0.30590000      -0.90220000       0.99180000
H       -1.76610000      -0.09600000      -1.10310000
H       -2.48350000      -2.45800000      -0.95150000
H       -1.29230000      -2.76630000       0.33540000
H       -4.00150000      -1.38780000       0.68330000
H       -1.84320000      -2.11950000       2.72850000
H       -3.37790000      -1.30750000       3.10790000
H       -4.09500000      -4.83080000       3.55900000
H       -2.54680000      -4.08070000       4.03430000
H       -4.08580000      -3.26670000       4.41900000
