21
Properties=species:S:1:pos:R:3 gdb_92462=T pbc="F F F"
C       -0.14650000       1.55380000       0.03640000
C        0.00650000       0.03090000      -0.00360000
C        0.77030000      -0.46910000      -1.26700000
C        1.96410000      -1.35930000      -0.82770000
C        2.87300000      -0.47310000       0.05240000
O        2.13460000       0.02800000       1.16460000
C        0.79200000      -0.50270000       1.22280000
C        0.83260000      -2.00960000       1.15600000
C        1.44780000      -2.46340000       0.06280000
H        0.83360000       2.03660000       0.09300000
H       -0.66120000       1.92150000      -0.85740000
H       -0.72660000       1.87040000       0.91040000
H       -0.99080000      -0.42250000       0.02290000
H        0.10870000      -1.02900000      -1.93330000
H        1.15560000       0.38420000      -1.83700000
H        2.52100000      -1.72980000      -1.69150000
H        3.73660000      -1.04470000       0.41900000
H        3.24780000       0.38110000      -0.52930000
H        0.37600000      -0.12490000       2.15910000
H        0.40410000      -2.63020000       1.93470000
H        1.60320000      -3.51130000      -0.16980000
