19
Properties=species:S:1:pos:R:3 gdb_107799=T pbc="F F F"
C        0.01420000       1.36010000      -0.08800000
O       -0.03460000      -0.05230000      -0.02760000
C        0.63100000      -0.58890000       1.05830000
C        2.16510000      -0.42360000       1.26950000
C        2.08090000      -1.78650000       1.95940000
C        0.76840000      -1.82680000       2.75290000
C        0.78800000      -2.14000000       1.27000000
C        0.04510000      -0.51770000       2.51070000
O        0.38800000       0.55520000       3.36230000
H        1.04800000       1.73100000      -0.11550000
H       -0.49690000       1.65920000      -1.00560000
H       -0.49650000       1.82700000       0.76710000
H        2.69600000      -0.49420000       0.31610000
H        2.50820000       0.43690000       1.85060000
H        2.89540000      -2.45150000       2.21410000
H        0.62380000      -2.51900000       3.57160000
H        0.44910000      -2.99890000       0.71230000
H       -1.04070000      -0.67870000       2.47150000
H       -0.27950000       1.24190000       3.27610000
