14
Properties=species:S:1:pos:R:3 gdb_47690=T pbc="F F F"
N        0.02460000       0.81570000       0.97520000
C       -0.09710000       0.05800000      -0.01710000
C       -1.44830000      -0.55220000      -0.36890000
O       -1.41280000      -1.41490000      -1.48850000
C       -0.75570000      -2.61260000      -1.23500000
O        0.55380000      -2.37970000      -0.70890000
C        1.25530000      -1.40020000      -1.35770000
O        2.11240000      -1.58770000      -2.15640000
O        0.94690000      -0.14800000      -0.91830000
H        0.97480000       1.18050000       1.05320000
H       -1.84360000      -1.05580000       0.52270000
H       -2.12990000       0.26020000      -0.63040000
H       -1.25320000      -3.21970000      -0.46850000
H       -0.69660000      -3.14470000      -2.18890000
