24
Properties=species:S:1:pos:R:3 gdb_113930=T pbc="F F F"
C        0.24520000      -2.85440000       0.14450000
C       -0.07180000      -1.53200000       0.85290000
C       -1.50800000      -1.10490000       0.62240000
C       -2.59610000      -1.49230000       1.56700000
N       -2.18490000      -0.09610000       1.43600000
C       -1.50560000       0.54650000       2.55930000
C       -2.53080000       1.40980000       3.30710000
C       -1.89170000       2.25160000       4.40250000
O       -3.17580000       2.28100000       2.39610000
H        1.29110000      -3.13920000       0.29190000
H       -0.38360000      -3.66600000       0.52480000
H        0.06990000      -2.77680000      -0.93400000
H        0.12790000      -1.63250000       1.92460000
H        0.60230000      -0.74860000       0.48240000
H       -1.77050000      -1.03080000      -0.43360000
H       -3.59290000      -1.73720000       1.21020000
H       -2.29720000      -2.01940000       2.47290000
H       -1.03470000      -0.16410000       3.25650000
H       -0.72210000       1.19960000       2.15600000
H       -3.27010000       0.72820000       3.76680000
H       -1.13500000       2.91990000       3.97870000
H       -2.65040000       2.86730000       4.89290000
H       -1.41850000       1.61770000       5.15930000
H       -3.30330000       1.75040000       1.59590000
