17
Properties=species:S:1:pos:R:3 gdb_9234=T pbc="F F F"
C        0.04990000       1.34610000       0.20040000
O       -0.01330000      -0.03850000      -0.14170000
C       -1.18380000      -0.66470000       0.09630000
C       -1.10860000      -2.11610000      -0.30820000
N       -2.16270000      -0.03580000       0.60160000
C       -3.41160000      -0.71540000       0.85070000
C       -4.56010000       0.28520000       0.86430000
O       -5.71780000      -0.01800000       0.74680000
H        1.05750000       1.66860000      -0.06480000
H       -0.69690000       1.91890000      -0.35650000
H       -0.13220000       1.49150000       1.26880000
H       -0.13150000      -2.34020000      -0.73530000
H       -1.27750000      -2.76390000       0.55760000
H       -1.88180000      -2.35090000      -1.04630000
H       -3.66590000      -1.51500000       0.14030000
H       -3.40570000      -1.18300000       1.85020000
H       -4.22980000       1.33790000       1.00830000
