17
Properties=species:S:1:pos:R:3 gdb_11551=T pbc="F F F"
C        0.07130000       1.39500000       0.05170000
O        0.34690000      -0.00970000      -0.02180000
C        0.65910000      -0.59670000       1.15180000
O        0.73120000      -0.01150000       2.19990000
C        0.85370000      -2.09200000       0.94970000
N        1.65230000      -2.66370000       2.01260000
C        0.94920000      -2.99090000       3.24620000
C        1.40220000      -4.06890000       2.32520000
H        0.94340000       1.93900000       0.42290000
H       -0.16740000       1.70470000      -0.96570000
H       -0.77220000       1.58890000       0.71940000
H       -0.15860000      -2.53530000       0.87130000
H        1.34420000      -2.25980000      -0.01380000
H        1.48960000      -2.77730000       4.16280000
H       -0.11920000      -2.78920000       3.29300000
H        0.63700000      -4.59260000       1.75370000
H        2.28330000      -4.66140000       2.55290000
