16
Properties=species:S:1:pos:R:3 gdb_49589=T pbc="F F F"
O       -0.71140000       0.85680000       0.43940000
C        0.18940000       1.00020000      -0.34580000
C        1.33960000       1.95610000      -0.17340000
C        1.49890000       3.02490000      -1.27270000
N        0.27520000       3.85370000      -1.19690000
C        1.39760000       4.10970000      -0.26320000
C        1.24660000       3.11080000       0.90240000
C        0.00710000       3.25680000       1.76280000
O        0.04540000       3.23840000       2.96790000
H        0.23190000       0.40700000      -1.28840000
H        2.25960000       1.37480000      -0.04470000
H        2.08540000       2.96160000      -2.17980000
H        0.32840000       4.55210000      -1.93710000
H        1.88650000       5.07470000      -0.23100000
H        2.11870000       3.09890000       1.55830000
H       -0.93080000       3.43860000       1.20680000
