16
Properties=species:S:1:pos:R:3 gdb_12037=T pbc="F F F"
C       -0.04930000       1.56810000       0.01680000
C        0.04680000       0.04930000       0.08000000
O        1.08590000      -0.48230000      -0.81780000
C        1.66900000      -1.21870000       0.26200000
C        2.21710000      -0.29320000       1.29750000
C        0.73760000      -0.62440000       1.28510000
C       -1.23900000      -0.57660000      -0.21980000
C       -2.30830000      -1.07600000      -0.44670000
H        0.90580000       2.02790000       0.27890000
H       -0.32230000       1.88060000      -0.99490000
H       -0.81930000       1.92470000       0.70700000
H        1.99560000      -2.23280000       0.06660000
H        2.76110000      -0.76600000       2.10990000
H        2.58720000       0.68480000       1.00610000
H        0.21520000      -1.07580000       2.11650000
H       -3.24840000      -1.52280000      -0.65830000
