18
Properties=species:S:1:pos:R:3 gdb_44390=T pbc="F F F"
O        0.00540000       0.01760000      -0.49900000
C       -0.01780000       1.15420000      -0.13140000
C       -1.15440000       2.15290000       0.18750000
C       -0.07890000       3.22230000       0.52590000
C        0.34900000       3.42550000       1.99080000
C        1.88720000       3.56690000       1.79360000
N        1.86290000       2.08870000       1.40850000
C        0.74820000       1.99790000       2.43930000
C        1.07880000       2.21470000       0.14540000
H       -1.75110000       2.38240000      -0.70110000
H       -1.83780000       1.84890000       0.98620000
H       -0.15230000       4.15580000      -0.03230000
H       -0.24200000       4.10050000       2.61210000
H        2.26290000       4.24040000       1.01800000
H        2.45040000       3.69910000       2.72020000
H        1.18600000       1.96750000       3.43880000
H        0.05880000       1.15890000       2.32170000
H        1.74010000       2.43460000      -0.69530000
