16
Properties=species:S:1:pos:R:3 gdb_35192=T pbc="F F F"
C       -0.10900000      -1.18470000      -0.01560000
C       -0.03110000       0.01490000      -0.00630000
C        0.04650000       1.44870000      -0.02030000
O        0.63910000       2.09080000       1.14060000
C        1.33840000       2.15160000      -0.08030000
C        2.78430000       1.63070000      -0.23050000
C        3.11710000       2.97070000      -0.91090000
N        2.23050000       3.06560000      -2.09260000
C        1.71630000       3.45940000      -0.75060000
H       -0.17480000      -2.24470000      -0.02020000
H       -0.83300000       1.96450000      -0.40320000
H        3.25060000       1.51700000       0.75090000
H        2.93360000       0.73230000      -0.83230000
H        4.04690000       3.52210000      -0.86000000
H        2.46460000       3.93180000      -2.57850000
H        1.32090000       4.44760000      -0.55290000
