15
Properties=species:S:1:pos:R:3 gdb_25250=T pbc="F F F"
O       -0.05380000      -0.07790000       0.00500000
C       -0.00880000       1.13260000       0.00980000
C       -1.23040000       2.09300000       0.03160000
C       -0.69660000       3.55950000       0.03070000
C        0.78750000       3.35280000       0.00850000
C        1.13610000       2.02640000      -0.00250000
N        2.51130000       2.00470000      -0.02220000
C        2.90330000       3.31210000      -0.02190000
N        1.88610000       4.16130000      -0.00350000
H       -1.85880000       1.87650000      -0.83740000
H       -1.83380000       1.86850000       0.91620000
H       -1.04550000       4.12490000      -0.83990000
H       -1.02040000       4.11690000       0.91600000
H        3.10780000       1.19390000      -0.03430000
H        3.94700000       3.59270000      -0.03560000
