19
Properties=species:S:1:pos:R:3 gdb_84510=T pbc="F F F"
C       -0.11050000       1.62030000      -0.00990000
C        0.00050000       0.08800000      -0.00650000
C        0.80070000      -0.47180000      -1.19000000
C        1.78540000      -1.30890000      -0.83400000
C        1.85820000      -1.38850000       0.64480000
C        2.18840000      -0.19350000       1.48410000
C        0.73700000      -0.52550000       1.18550000
C        0.34850000      -1.80390000       1.94000000
O        1.51060000      -2.53290000       1.44500000
H        0.87550000       2.09180000       0.04690000
H       -0.59740000       1.97600000      -0.92400000
H       -0.70000000       1.96740000       0.84380000
H       -1.02220000      -0.31530000      -0.04290000
H        0.59580000      -0.16270000      -2.21210000
H        2.45950000      -1.81630000      -1.51440000
H        2.56370000      -0.35360000       2.49060000
H        2.60690000       0.66060000       0.96460000
H        0.32800000      -1.76690000       3.03600000
H       -0.58000000      -2.25410000       1.56860000
