18
Properties=species:S:1:pos:R:3 gdb_36485=T pbc="F F F"
C       -0.10770000      -1.17590000      -0.08570000
C       -0.06250000       0.02480000      -0.07820000
C       -0.00380000       1.48000000      -0.04420000
C        1.42600000       2.03280000       0.04580000
O        2.12020000       1.68150000      -1.14930000
C        3.04700000       2.70180000      -1.50330000
C        2.52590000       3.96960000      -0.86030000
N        1.09200000       4.19360000      -1.14000000
C        1.50760000       3.54740000       0.12400000
H       -0.14830000      -2.23640000      -0.10710000
H       -0.46380000       1.90810000      -0.94090000
H       -0.57270000       1.84830000       0.81970000
H        1.93110000       1.60420000       0.92680000
H        4.05610000       2.48100000      -1.11960000
H        3.08790000       2.74540000      -2.59640000
H        3.18730000       4.81300000      -0.69490000
H        0.86710000       5.16810000      -0.95390000
H        1.35750000       4.05150000       1.07260000
