23
Properties=species:S:1:pos:R:3 gdb_112114=T pbc="F F F"
C       -0.18450000       1.59190000      -0.04540000
C        0.00720000       0.06680000       0.01100000
C        0.74450000      -0.45950000      -1.23600000
C        2.18250000       0.07530000      -1.33260000
C        2.88330000       0.04610000      -0.00030000
C        2.25560000      -0.17770000       1.15350000
C        0.76720000      -0.41510000       1.27030000
C        0.21450000       0.17160000       2.57240000
O        0.78860000      -0.55820000       3.64980000
H        0.76690000       2.12510000       0.04290000
H       -0.64620000       1.88330000      -0.99510000
H       -0.83920000       1.94730000       0.75600000
H       -0.99100000      -0.39000000       0.02980000
H        0.77610000      -1.55500000      -1.18590000
H        0.18370000      -0.20150000      -2.14180000
H        2.74940000      -0.51260000      -2.06590000
H        2.18670000       1.10250000      -1.72630000
H        3.95710000       0.22190000      -0.00390000
H        2.81220000      -0.20590000       2.08620000
H        0.60410000      -1.50030000       1.36120000
H        0.46410000       1.24020000       2.64700000
H       -0.88440000       0.08330000       2.57800000
H        0.56340000      -0.11070000       4.47020000
