21
Properties=species:S:1:pos:R:3 gdb_59924=T pbc="F F F"
C       -0.10530000       1.53720000      -0.09480000
C        0.03780000       0.00950000      -0.04100000
C        0.80390000      -0.50650000      -1.26720000
C        0.73040000      -0.47390000       1.24370000
C       -0.02880000      -0.15330000       2.56570000
C       -1.37210000      -0.74380000       2.58460000
C       -2.47230000      -1.22630000       2.58110000
C        0.75610000      -0.58790000       3.72610000
C        1.42750000      -0.94240000       4.65660000
H        0.87420000       2.02700000      -0.02970000
H       -0.56870000       1.84930000      -1.03620000
H       -0.72990000       1.92480000       0.71600000
H       -0.96860000      -0.42790000      -0.06090000
H        1.82330000      -0.10260000      -1.29430000
H        0.87870000      -1.59880000      -1.26140000
H        0.30550000      -0.20870000      -2.19540000
H        0.87580000      -1.55820000       1.19870000
H        1.72670000      -0.02260000       1.32290000
H       -0.14220000       0.93740000       2.63380000
H       -3.44490000      -1.65250000       2.59130000
H        2.00960000      -1.25500000       5.48790000
