18
Properties=species:S:1:pos:R:3 gdb_69285=T pbc="F F F"
C        0.03990000       1.50550000      -0.01930000
C       -0.04350000       0.00450000       0.08640000
C       -1.36750000      -0.69460000      -0.24700000
C       -1.36070000      -1.93590000       0.61000000
C       -0.28700000      -1.98190000       1.42160000
C        0.01550000      -2.97620000       2.38210000
C        0.30580000      -3.79480000       3.21750000
C        0.61870000      -0.81130000       1.15350000
N        1.19310000      -0.73450000      -0.20860000
H        1.03080000       1.85430000       0.28060000
H       -0.13210000       1.83380000      -1.05100000
H       -0.71060000       1.98790000       0.61640000
H       -2.22340000      -0.05050000      -0.00130000
H       -1.45860000      -0.92200000      -1.31800000
H       -2.12650000      -2.70020000       0.55550000
H        0.55320000      -4.52480000       3.94780000
H        1.23450000      -0.40430000       1.94860000
H        0.99720000      -1.59930000      -0.71010000
