18
Properties=species:S:1:pos:R:3 gdb_91504=T pbc="F F F"
O       -0.12890000       1.38370000       0.02130000
C        0.04430000      -0.01660000       0.02100000
C        0.59660000      -0.59780000       1.35510000
C       -0.66860000      -1.34060000       1.76100000
O       -1.76470000      -0.34500000       1.41390000
C       -1.33740000      -0.72050000       0.02100000
C       -1.74600000      -1.31320000      -1.35560000
N       -0.78200000      -2.44750000      -0.94170000
C       -1.17000000      -2.10630000       0.47400000
H       -0.75880000       1.56380000       0.73240000
H        0.65420000      -0.26300000      -0.84730000
H        1.45060000      -1.26720000       1.22210000
H        0.86690000       0.19600000       2.05450000
H       -0.79050000      -1.73830000       2.76880000
H       -2.78780000      -1.64370000      -1.41990000
H       -1.44740000      -0.77170000      -2.25650000
H       -1.09780000      -3.36900000      -1.23500000
H       -2.14050000      -2.54430000       0.73430000
