16
Properties=species:S:1:pos:R:3 gdb_11925=T pbc="F F F"
C       -0.03390000       1.56070000       0.01820000
C        0.01490000       0.06320000       0.00040000
C       -0.88390000      -0.83020000       0.82330000
C        0.61120000      -0.94130000       0.99270000
O        1.15060000      -1.75770000      -0.05900000
C        0.70300000      -0.79910000      -1.05430000
C        1.32820000      -0.78500000       2.20750000
C        1.93360000      -0.64480000       3.23810000
H        0.92740000       1.99360000      -0.27840000
H       -0.80090000       1.94060000      -0.66730000
H       -0.27330000       1.93120000       1.01970000
H       -1.40730000      -0.32890000       1.63100000
H       -1.40920000      -1.66920000       0.37420000
H        0.07480000      -1.26180000      -1.82470000
H        1.56220000      -0.30430000      -1.52280000
H        2.46960000      -0.52730000       4.14720000
