22
Properties=species:S:1:pos:R:3 gdb_109301=T pbc="F F F"
C        0.15670000       1.47460000      -0.08180000
C       -0.07130000      -0.02900000       0.04850000
C       -1.52320000      -0.43490000       0.08890000
N       -2.46800000       0.40940000       0.09430000
C       -3.84540000      -0.06640000       0.08070000
C       -3.98010000      -1.52120000      -0.37760000
C       -2.92820000      -2.36200000       0.33810000
C       -2.86170000      -3.80960000      -0.11840000
O       -1.62130000      -1.79670000       0.11630000
H        1.22810000       1.69580000      -0.10210000
H       -0.29610000       1.86170000      -0.99800000
H       -0.29570000       2.01280000       0.75420000
H        0.39950000      -0.57250000      -0.78060000
H        0.40820000      -0.42040000       0.95520000
H       -4.26780000       0.05660000       1.08790000
H       -4.42650000       0.59650000      -0.57040000
H       -4.98140000      -1.91340000      -0.16990000
H       -3.81520000      -1.59300000      -1.45960000
H       -3.11790000      -2.32680000       1.42140000
H       -2.67510000      -3.86400000      -1.19530000
H       -2.05580000      -4.33880000       0.39730000
H       -3.80610000      -4.31830000       0.09770000
