15
Properties=species:S:1:pos:R:3 gdb_54171=T pbc="F F F"
N       -0.02430000       1.27830000       0.31470000
C        0.07170000      -0.00500000      -0.12440000
O        1.08790000      -0.51590000      -0.55170000
C       -1.23730000      -0.76920000      -0.06040000
O       -2.38410000      -0.02570000       0.24330000
C       -1.35270000      -1.99820000      -0.91520000
C       -1.22370000      -2.15150000       0.58810000
C       -0.05000000      -2.71170000       1.19750000
N        0.85490000      -3.19720000       1.72850000
H        0.82890000       1.80250000       0.42080000
H       -0.85340000       1.57390000       0.80250000
H       -2.70130000       0.38090000      -0.57180000
H       -2.32240000      -2.22620000      -1.34150000
H       -0.47990000      -2.23770000      -1.50960000
H       -2.14490000      -2.36840000       1.11880000
