15
Properties=species:S:1:pos:R:3 gdb_54808=T pbc="F F F"
N       -0.10080000       1.31520000       0.08500000
C        0.10710000      -0.00340000      -0.20200000
O        1.16580000      -0.46880000      -0.56650000
C       -1.16370000      -0.82930000      -0.03280000
N       -1.06040000      -2.32740000      -0.01530000
C       -0.23940000      -2.65350000       1.13870000
C       -1.68120000      -2.34090000       1.39490000
C       -1.87000000      -0.86040000       1.34060000
O       -2.46700000      -0.03620000       1.97430000
H        0.70610000       1.91910000       0.10580000
H       -0.91920000       1.59670000       0.60430000
H       -1.89400000      -0.52520000      -0.79070000
H        0.02610000      -3.70460000       1.19780000
H        0.54240000      -1.97010000       1.45270000
H       -2.39540000      -3.08380000       1.72880000
