18
Properties=species:S:1:pos:R:3 gdb_126453=T pbc="F F F"
C       -0.09220000       1.51780000      -0.06890000
C        0.00640000      -0.00500000       0.04830000
C        0.73620000      -0.46300000       1.26910000
N        1.24180000       0.33440000       2.15130000
O        1.83490000      -0.52610000       3.12730000
C        1.64810000      -1.82930000       2.76830000
N        2.02270000      -2.88010000       3.36820000
N        0.94190000      -1.78550000       1.57390000
C        0.53190000      -2.96450000       0.84100000
H        0.90040000       1.97220000      -0.10640000
H       -0.63460000       1.78800000      -0.97840000
H       -0.61690000       1.94280000       0.78980000
H       -0.99550000      -0.45450000       0.05710000
H        0.51030000      -0.42530000      -0.83220000
H        2.52340000      -2.65510000       4.22330000
H        0.88520000      -3.82490000       1.41100000
H       -0.55750000      -3.01590000       0.74830000
H        0.97790000      -2.98620000      -0.15830000
