17
Properties=species:S:1:pos:R:3 gdb_63247=T pbc="F F F"
C        0.20610000       1.50960000      -0.00110000
C       -0.02050000      -0.02140000      -0.01740000
O       -1.40390000      -0.29960000       0.00200000
C        0.59980000      -0.64670000      -1.23910000
C        1.86520000      -1.04450000      -1.21790000
C        2.68490000      -0.92930000       0.03060000
O        1.91140000      -0.92850000       1.24600000
C        0.60810000      -0.61690000       1.25120000
O       -0.05220000      -0.78230000       2.24680000
H        1.26900000       1.76970000      -0.01610000
H       -0.27350000       1.94630000      -0.88090000
H       -0.25160000       1.93770000       0.89540000
H       -1.62130000      -0.45000000       0.93470000
H       -0.03290000      -0.72710000      -2.11670000
H        2.35920000      -1.45990000      -2.09040000
H        3.36780000      -1.77820000       0.13400000
H        3.30110000      -0.01920000       0.02420000
