18
Properties=species:S:1:pos:R:3 gdb_83213=T pbc="F F F"
C       -0.09660000       1.52100000      -0.47130000
N        0.06290000       0.12020000      -0.09280000
C        1.28370000      -0.64340000      -0.26100000
C        2.62540000       0.06320000      -0.37730000
N        2.62500000       1.03540000       0.72240000
C        1.77830000       0.52980000       1.80520000
C        1.20730000       1.63390000       2.59540000
N        0.76670000       2.48350000       3.24280000
C        0.73310000      -0.34370000       1.09930000
H        0.78970000       2.14360000      -0.30760000
H       -0.36960000       1.55490000      -1.53060000
H       -0.92960000       1.93700000       0.10240000
H        1.18380000      -1.61320000      -0.74130000
H        3.42110000      -0.69580000      -0.29980000
H        2.75740000       0.58360000      -1.33400000
H        3.54890000       1.30130000       1.03560000
H        2.30680000      -0.12670000       2.51930000
H        0.19840000      -1.05550000       1.72180000
