12
Properties=species:S:1:pos:R:3 gdb_131332=T pbc="F F F"
O        0.09600000       1.32690000       0.18660000
C        0.07400000      -0.00290000       0.05870000
N        0.07220000      -0.70830000      -1.04190000
N        0.04500000      -2.07910000      -0.71520000
C        0.03250000      -2.08690000       0.58540000
N        0.00730000      -2.93590000       1.67390000
C        0.01120000      -2.12490000       2.78750000
N        0.03570000      -0.84720000       2.52350000
N        0.04900000      -0.83620000       1.14220000
H        0.11050000       1.68730000      -0.71020000
H       -0.00950000      -3.93980000       1.65220000
H       -0.00510000      -2.52080000       3.79090000
