19
Properties=species:S:1:pos:R:3 gdb_99611=T pbc="F F F"
C        0.08530000       1.47770000       0.06420000
N       -0.12840000       0.04700000      -0.15330000
C        0.69110000      -0.53010000      -1.21450000
C        2.13870000      -0.52570000      -0.88020000
N        3.25450000      -0.49310000      -0.57870000
C        0.20590000      -1.94570000      -1.52820000
O        0.02400000      -2.73240000      -0.38460000
C       -0.71090000      -2.16830000      -2.70080000
C        0.72500000      -2.65770000      -2.73500000
H        1.13240000       1.74710000       0.27200000
H       -0.24100000       2.03280000      -0.82180000
H       -0.52980000       1.80340000       0.90690000
H        0.07350000      -0.45950000       0.70320000
H        0.56740000       0.08680000      -2.11200000
H       -0.82090000      -2.47510000       0.00280000
H       -1.48660000      -2.91540000      -2.57510000
H       -0.99040000      -1.32130000      -3.31790000
H        1.43670000      -2.14520000      -3.37330000
H        0.89540000      -3.72180000      -2.62510000
