16
Properties=species:S:1:pos:R:3 gdb_50677=T pbc="F F F"
O        0.20310000      -0.21800000      -0.14180000
C        0.10250000       0.97720000      -0.05380000
C        1.28780000       1.91990000       0.01050000
C        1.28010000       2.98120000      -1.11130000
C        2.07870000       4.15530000      -0.50280000
O        2.22790000       3.87900000       0.89950000
C        1.36190000       2.82870000       1.26530000
C        0.03310000       3.35000000       1.66890000
N       -1.00120000       3.76890000       1.96950000
H       -0.88990000       1.47790000      -0.03000000
H        2.20040000       1.32070000      -0.01750000
H        1.72370000       2.60100000      -2.03280000
H        0.25250000       3.28590000      -1.33450000
H        3.08560000       4.24130000      -0.92120000
H        1.56190000       5.11150000      -0.63900000
H        1.80030000       2.31160000       2.12340000
