21
Properties=species:S:1:pos:R:3 gdb_119651=T pbc="F F F"
C       -0.03300000       1.57480000      -0.03540000
C        0.01660000       0.04490000      -0.02200000
C       -1.37330000      -0.59630000       0.09820000
C       -1.34510000      -2.09950000       0.11030000
C       -0.67670000      -3.09220000       1.09590000
C       -1.35090000      -4.03060000       0.07310000
C       -2.55810000      -3.06590000      -0.12110000
O       -2.46370000      -3.03100000      -1.57740000
C       -1.08150000      -3.05380000      -1.10960000
H        0.96880000       2.00620000      -0.12520000
H       -0.63190000       1.94360000      -0.87550000
H       -0.48230000       1.96380000       0.88520000
H        0.50080000      -0.31570000      -0.93860000
H        0.64680000      -0.29500000       0.80960000
H       -1.86430000      -0.23500000       1.01250000
H       -2.00440000      -0.27610000      -0.74170000
H        0.41690000      -3.10150000       1.11920000
H       -1.07690000      -3.11110000       2.11420000
H       -1.37300000      -5.11870000       0.02460000
H       -3.54570000      -3.07320000       0.34110000
H       -0.27860000      -3.05000000      -1.84720000
