18
Properties=species:S:1:pos:R:3 gdb_15145=T pbc="F F F"
O        0.37480000       0.28280000       1.00320000
C        0.17570000       1.18790000       0.22170000
N        1.08940000       1.67740000      -0.65950000
C        2.45220000       1.17740000      -0.73930000
C        3.43010000       1.98510000       0.12310000
N        4.77230000       1.43810000      -0.00390000
C        5.61350000       2.00810000      -1.05290000
C        5.87090000       2.31410000       0.38110000
H       -0.79730000       1.71300000       0.13720000
H        0.82150000       2.46370000      -1.22920000
H        2.44400000       0.14030000      -0.39900000
H        2.77520000       1.19000000      -1.78580000
H        3.38210000       3.05430000      -0.16010000
H        3.12100000       1.90960000       1.17110000
H        6.24290000       1.30600000      -1.59190000
H        5.19830000       2.81030000      -1.66260000
H        5.62660000       3.31830000       0.72480000
H        6.69160000       1.83880000       0.91060000
