15
Properties=species:S:1:pos:R:3 gdb_131052=T pbc="F F F"
O        0.97700000       1.15330000       1.48330000
C        0.42550000       1.46690000       0.44200000
N        1.02930000       1.47970000      -0.76780000
C        2.42760000       1.07530000      -0.93690000
C        3.42110000       2.05940000      -0.40440000
C        4.41760000       2.81210000      -0.98250000
N        5.04810000       3.53120000      -0.01270000
N        4.49280000       3.26610000       1.13780000
N        3.51820000       2.37300000       0.91130000
H       -0.63740000       1.76590000       0.39390000
H        0.51890000       1.82830000      -1.56310000
H        2.55490000       0.10810000      -0.43880000
H        2.60480000       0.92540000      -2.00320000
H        4.71510000       2.87230000      -2.01750000
H        2.91020000       2.03590000       1.64860000
