22
Properties=species:S:1:pos:R:3 gdb_63908=T pbc="F F F"
C       -0.10490000       1.56520000       0.01850000
C       -0.02970000       0.02890000       0.01230000
C       -1.45800000      -0.55780000       0.05070000
C        0.71010000      -0.42340000      -1.26560000
N        1.02230000      -1.86530000      -1.28700000
C        2.43730000      -2.22070000      -1.15470000
C        1.49530000      -2.43050000      -0.01790000
C        1.48540000      -1.56790000       1.18880000
C        0.75800000      -0.45220000       1.21750000
H        0.89380000       2.01380000       0.04470000
H       -0.61940000       1.93590000      -0.87490000
H       -0.65730000       1.92370000       0.89400000
H       -2.06010000      -0.16060000      -0.77460000
H       -1.43590000      -1.64690000      -0.03720000
H       -1.96150000      -0.30210000       0.98900000
H        0.09410000      -0.20560000      -2.14700000
H        1.62560000       0.17760000      -1.35740000
H        2.77350000      -3.06450000      -1.75220000
H        3.15460000      -1.40670000      -1.06400000
H        1.15180000      -3.45140000       0.15570000
H        2.03360000      -1.91040000       2.06290000
H        0.70440000       0.15050000       2.12150000
