18
Properties=species:S:1:pos:R:3 gdb_39854=T pbc="F F F"
C       -0.03130000       1.45380000      -0.01590000
C        1.28300000       0.69660000      -0.01150000
C       -0.02530000      -0.03870000      -0.00330000
C       -0.50740000      -0.95760000       1.11890000
N        0.24360000      -2.22790000       0.88970000
C       -0.52890000      -2.32870000      -0.35210000
C       -1.72390000      -1.62590000       0.30300000
O       -2.02030000      -0.83000000      -0.84190000
C       -0.58730000      -0.90970000      -1.11530000
H       -0.31870000       1.97060000       0.89420000
H       -0.33250000       1.96040000      -0.92680000
H        1.87110000       0.69470000      -0.92400000
H        1.87740000       0.70780000       0.89710000
H       -0.57740000      -0.58000000       2.13830000
H        1.24530000      -2.08230000       0.76350000
H       -0.54840000      -3.25570000      -0.92300000
H       -2.57010000      -2.07420000       0.81780000
H       -0.32000000      -0.73740000      -2.15670000
