17
Properties=species:S:1:pos:R:3 gdb_50779=T pbc="F F F"
O       -0.51520000       0.00560000       0.23460000
C        0.26320000       0.66820000      -0.39420000
C        0.88410000       1.96740000       0.12700000
C        1.01670000       2.97540000      -0.91320000
C        1.10850000       3.77440000      -1.81030000
C        1.21820000       4.75470000      -2.87650000
C        0.73290000       6.20190000      -2.58160000
C        2.17750000       6.60500000      -2.93190000
O        2.57320000       5.22610000      -3.10130000
H        0.60550000       0.37500000      -1.41010000
H        0.28840000       2.31580000       0.97710000
H        1.87900000       1.70590000       0.51990000
H        0.80140000       4.33770000      -3.80340000
H       -0.05020000       6.57310000      -3.24320000
H        0.44620000       6.36820000      -1.54350000
H        2.29240000       7.17720000      -3.86060000
H        2.74880000       7.09760000      -2.13710000
