16
Properties=species:S:1:pos:R:3 gdb_110432=T pbc="F F F"
C        0.18750000       1.36590000       0.06570000
O       -0.16720000       0.01140000       0.26900000
C        0.64570000      -0.65270000       1.19040000
C        0.18060000      -2.10680000       1.29460000
C        1.15180000      -2.55740000       0.29530000
C        1.97460000      -1.24620000       0.59140000
C        2.47400000      -2.04090000       1.78570000
O        3.44830000      -2.08250000       2.46540000
N        1.33720000      -2.96680000       1.75180000
H        1.19150000       1.46750000      -0.37010000
H       -0.54300000       1.78540000      -0.62870000
H        0.15660000       1.93510000       1.00640000
H        0.75480000      -0.06680000       2.11610000
H       -0.80970000      -2.47320000       1.53110000
H        1.15730000      -3.28490000      -0.50150000
H        2.62380000      -0.67020000      -0.06120000
