17
Properties=species:S:1:pos:R:3 gdb_89143=T pbc="F F F"
C       -0.38320000       1.43110000       0.04330000
N        0.07440000       0.05140000      -0.00510000
C        1.08530000      -0.38710000      -1.00720000
C        1.85020000      -1.09150000       0.12720000
O        2.33840000      -2.37390000       0.08740000
C        2.32040000      -0.07400000       1.16420000
C        2.82780000       1.22280000       0.82570000
N        3.25560000       2.25790000       0.52970000
C        0.83650000      -0.52440000       1.07660000
H        0.42190000       2.17310000       0.13660000
H       -0.95120000       1.64830000      -0.86670000
H       -1.06220000       1.54700000       0.89420000
H        0.66640000      -1.08440000      -1.73900000
H        1.62380000       0.41840000      -1.52060000
H        3.20950000      -2.36150000      -0.32640000
H        2.83030000      -0.55280000       1.99590000
H        0.36450000      -0.94240000       1.95950000
