14
Properties=species:S:1:pos:R:3 gdb_43910=T pbc="F F F"
O       -0.14790000       0.14840000       0.56860000
C       -0.02420000       1.23800000       0.12150000
O       -1.02660000       2.06580000      -0.36460000
C       -0.07190000       3.12180000      -0.69300000
C        0.09110000       4.14190000       0.46300000
C        1.22760000       3.26330000       1.06920000
C        1.08750000       2.25290000      -0.11400000
C       -0.18330000       3.57200000      -2.06220000
N       -0.23890000       3.96420000      -3.14770000
H        0.43180000       5.12000000       0.12050000
H       -0.81730000       4.26110000       1.05470000
H        2.19690000       3.76230000       1.07180000
H        1.04790000       2.84130000       2.05860000
H        1.97030000       1.93500000      -0.66260000
