19
Properties=species:S:1:pos:R:3 gdb_102788=T pbc="F F F"
C       -0.03340000       1.48840000       0.20020000
O        0.03550000       0.09250000      -0.03790000
C       -1.19380000      -0.57760000       0.00650000
C       -0.96750000      -1.95990000      -0.63690000
C       -0.61230000      -1.84930000      -2.10720000
O       -1.11170000      -2.52510000      -2.96990000
C       -1.74550000      -0.72880000       1.44110000
C       -3.12020000      -1.36180000       1.58120000
O       -1.10660000      -0.35900000       2.39570000
H        0.97370000       1.88130000       0.04550000
H       -0.71760000       1.97830000      -0.50960000
H       -0.35240000       1.70900000       1.22360000
H       -1.95900000      -0.02880000      -0.57540000
H       -0.12260000      -2.42570000      -0.11230000
H       -1.84060000      -2.60860000      -0.54220000
H        0.15740000      -1.08390000      -2.33760000
H       -3.77050000      -1.13540000       0.73140000
H       -3.01510000      -2.45170000       1.63430000
H       -3.57990000      -1.02210000       2.51060000
