17
Properties=species:S:1:pos:R:3 gdb_33255=T pbc="F F F"
O       -0.03110000       1.40370000      -0.28660000
C       -0.02180000       0.02100000       0.04700000
C       -1.46840000      -0.44360000       0.07970000
N       -2.07530000      -0.24330000      -1.22190000
C       -3.40280000      -0.57420000      -1.38800000
C       -4.22190000      -1.37940000      -0.65340000
O       -5.44510000      -1.41810000      -1.29680000
C       -5.28300000      -0.62450000      -2.36500000
N       -4.10950000      -0.09260000      -2.48510000
H        0.86770000       1.67560000      -0.49170000
H        0.53010000      -0.56360000      -0.70300000
H        0.44000000      -0.15260000       1.03030000
H       -1.49070000      -1.51160000       0.33090000
H       -2.00710000       0.09320000       0.87910000
H       -1.83970000       0.65290000      -1.62770000
H       -4.13260000      -1.95710000       0.24740000
H       -6.13370000      -0.50140000      -3.01720000
