15
Properties=species:S:1:pos:R:3 gdb_125432=T pbc="F F F"
C        0.00580000       1.50060000       0.02350000
C       -0.05370000       0.00580000      -0.00420000
N       -1.13660000      -0.63870000      -0.25060000
C       -1.07080000      -2.03030000      -0.24940000
O       -2.02810000      -2.73920000      -0.46830000
C        0.26960000      -2.62250000       0.04170000
C        0.40930000      -4.11090000       0.05810000
N        1.32170000      -1.92430000       0.28190000
O        1.15460000      -0.52880000       0.25870000
H        0.72600000       1.86210000      -0.71670000
H       -0.98340000       1.90110000      -0.19190000
H        0.34460000       1.84560000       1.00500000
H        0.10480000      -4.51980000      -0.91000000
H        1.43710000      -4.39930000       0.28110000
H       -0.27100000      -4.53630000       0.80210000
