19
Properties=species:S:1:pos:R:3 gdb_65010=T pbc="F F F"
C       -0.27950000       1.44260000       0.47770000
C       -0.00310000       0.01650000       0.03630000
C        1.36840000      -0.31660000      -0.50710000
C        0.95950000      -0.79880000       0.86320000
C       -1.23800000      -0.67660000      -0.58210000
C       -1.58560000       0.03100000      -1.90150000
O       -2.49700000       0.80190000      -2.03220000
C       -1.06230000      -2.09710000      -0.85550000
C       -0.92910000      -3.25770000      -1.14130000
H        0.62770000       1.89980000       0.88280000
H       -0.63090000       2.06830000      -0.34890000
H       -1.04680000       1.47000000       1.26010000
H        1.44460000      -1.06420000      -1.28890000
H        2.09010000       0.48940000      -0.58310000
H        1.39380000      -0.31630000       1.73210000
H        0.76670000      -1.85840000       0.98210000
H       -2.09350000      -0.52900000       0.08870000
H       -0.89400000      -0.21320000      -2.73630000
H       -0.82020000      -4.28870000      -1.37290000
