21
Properties=species:S:1:pos:R:3 gdb_26181=T pbc="F F F"
C        0.02570000       1.55470000       0.23680000
C       -0.04380000       0.03150000       0.02120000
C        0.80620000      -0.71900000       1.06310000
C       -1.46010000      -0.46640000      -0.01090000
N       -2.04880000      -1.04330000      -1.03690000
C       -3.33700000      -1.33870000      -0.63350000
C       -4.30970000      -2.00720000      -1.54970000
C       -3.52190000      -0.92980000       0.66030000
N       -2.31860000      -0.37430000       1.04910000
H        1.06190000       1.90410000       0.18490000
H       -0.55470000       2.08740000      -0.52160000
H       -0.36680000       1.83860000       1.22060000
H        0.35140000      -0.19460000      -0.97400000
H        0.44700000      -0.53300000       2.08240000
H        0.77940000      -1.79850000       0.89060000
H        1.84930000      -0.38950000       1.01880000
H       -3.93620000      -2.98350000      -1.87790000
H       -5.27450000      -2.15940000      -1.05770000
H       -4.47740000      -1.40920000      -2.45220000
H       -4.36900000      -0.97810000       1.32480000
H       -2.11650000       0.02370000       1.95030000
