15
Properties=species:S:1:pos:R:3 gdb_131868=T pbc="F F F"
O       -0.02660000       1.42890000       0.01370000
C       -0.00150000       0.01800000      -0.00130000
C       -1.39340000      -0.58380000       0.04880000
O       -2.05350000      -0.16970000      -1.17340000
C       -3.31450000      -0.52940000      -1.34260000
C       -4.14670000      -0.24000000      -2.40030000
N       -5.33570000      -0.83670000      -2.11200000
N       -5.34060000      -1.44550000      -1.03020000
O       -3.93500000      -1.25870000      -0.44750000
H       -0.52080000       1.71340000      -0.76260000
H        0.53140000      -0.37450000      -0.88100000
H        0.54710000      -0.30090000       0.89070000
H       -1.36320000      -1.67740000       0.09260000
H       -1.95770000      -0.20170000       0.90440000
H       -3.96770000       0.32660000      -3.29550000
