16
Properties=species:S:1:pos:R:3 gdb_33227=T pbc="F F F"
O       -0.05460000       1.45260000      -0.07430000
C       -0.01240000       0.04100000      -0.05000000
C       -1.39540000      -0.57400000       0.05360000
O       -2.09840000      -0.17990000      -1.14440000
C       -3.35950000      -0.57490000      -1.22000000
N       -4.04810000      -1.29480000      -0.39380000
C       -5.29800000      -1.37710000      -1.01260000
C       -5.27460000      -0.69570000      -2.17570000
O       -4.00690000      -0.16310000      -2.32420000
H       -0.61110000       1.70230000      -0.82020000
H        0.50070000      -0.36710000      -0.93480000
H        0.56620000      -0.24630000       0.83380000
H       -1.35660000      -1.66690000       0.10960000
H       -1.93850000      -0.19360000       0.92390000
H       -6.11280000      -1.92300000      -0.56460000
H       -5.97400000      -0.48590000      -2.96490000
