15
Properties=species:S:1:pos:R:3 gdb_50026=T pbc="F F F"
O       -0.59730000       0.75570000       0.82620000
C        0.19750000       0.96010000      -0.05420000
C        1.29430000       1.96900000       0.04470000
O        2.39900000       1.75900000      -0.84080000
C        1.56550000       2.84930000      -1.12430000
C        0.76830000       3.11050000      -2.41730000
C        1.02770000       4.64060000      -2.24650000
C        1.95860000       4.32830000      -1.05390000
O        2.70430000       4.95940000      -0.36940000
H        0.18090000       0.41170000      -1.02130000
H        1.53950000       2.33430000       1.04020000
H        1.26100000       2.68280000      -3.29290000
H       -0.27750000       2.80240000      -2.40770000
H        1.51940000       5.14680000      -3.08020000
H        0.15220000       5.22490000      -1.95010000
