20
Properties=species:S:1:pos:R:3 gdb_55457=T pbc="F F F"
C       -0.17940000       1.44100000       0.06910000
C       -0.11890000      -0.07080000       0.03440000
O       -0.06690000      -0.74260000       1.04080000
C       -0.08920000      -0.73560000      -1.33890000
C        1.38470000      -0.80380000      -1.82300000
O        1.48770000      -1.53920000      -3.02450000
C        1.02620000      -2.87450000      -2.86190000
C       -0.44260000      -2.87970000      -2.43700000
N       -0.70080000      -2.05590000      -1.25770000
H        0.52780000       1.88450000      -0.63990000
H       -1.18060000       1.76610000      -0.23910000
H        0.02100000       1.80260000       1.07830000
H       -0.64670000      -0.12470000      -2.06210000
H        1.78830000       0.19160000      -2.03450000
H        1.99490000      -1.27210000      -1.03160000
H        1.16870000      -3.36960000      -3.82750000
H        1.64250000      -3.39470000      -2.10830000
H       -1.04720000      -2.49240000      -3.26830000
H       -0.78090000      -3.90140000      -2.23470000
H       -0.38000000      -2.50120000      -0.40280000
