17
Properties=species:S:1:pos:R:3 gdb_45820=T pbc="F F F"
O       -0.05800000      -0.08270000       0.14060000
C       -0.07180000       1.12560000       0.11070000
C       -1.33540000       1.97250000       0.16820000
N       -1.25340000       3.11570000       1.08360000
C       -0.09730000       3.59760000       1.32690000
N        1.09960000       3.24490000       0.74410000
C        2.34040000       2.97700000       1.52290000
C        2.42820000       1.56270000       0.87770000
C        1.19780000       1.94980000       0.02330000
H       -1.55850000       2.32940000      -0.85040000
H       -2.16870000       1.33020000       0.46550000
H       -0.01060000       4.41030000       2.05110000
H        3.15540000       3.65650000       1.25670000
H        2.19770000       2.99630000       2.60700000
H        3.34140000       1.34970000       0.32240000
H        2.22410000       0.73970000       1.56390000
H        1.42560000       2.10120000      -1.04140000
