21
Properties=species:S:1:pos:R:3 gdb_104316=T pbc="F F F"
C       -0.01400000       1.35560000       0.14500000
O       -0.00530000      -0.04170000      -0.04500000
C        0.64990000      -0.52660000      -1.21030000
C       -0.08150000      -0.09750000      -2.49150000
C        2.17050000      -0.18980000      -1.25590000
C        2.85140000      -1.40190000      -1.93470000
C        1.94290000      -2.56380000      -1.58040000
O        1.58210000      -2.58840000      -0.19300000
C        0.64700000      -2.04770000      -1.12860000
H        0.99900000       1.78220000       0.16330000
H       -0.59950000       1.88630000      -0.61950000
H       -0.48040000       1.53380000       1.11730000
H       -0.04340000       0.98640000      -2.63050000
H        0.37710000      -0.55720000      -3.37270000
H       -1.13200000      -0.40220000      -2.45250000
H        2.38020000       0.74860000      -1.77470000
H        2.52270000      -0.09930000      -0.22640000
H        2.88410000      -1.28900000      -3.02520000
H        3.88020000      -1.55060000      -1.59200000
H        2.05840000      -3.53660000      -2.05190000
H       -0.29070000      -2.58900000      -1.22820000
