16
Properties=species:S:1:pos:R:3 gdb_16777=T pbc="F F F"
O       -0.45380000       1.55430000      -0.03170000
C       -0.12670000       0.18130000       0.00190000
C       -1.40690000      -0.64350000       0.01390000
O       -2.19350000      -0.33130000       1.15430000
C       -3.50290000      -0.04520000       0.72980000
C       -3.70170000       1.24120000      -0.04560000
C       -3.49370000      -0.08110000      -0.75550000
O       -2.17930000      -0.38690000      -1.14970000
H        0.36250000       2.06060000      -0.04550000
H        0.45670000      -0.12660000      -0.87930000
H        0.44700000      -0.08530000       0.90280000
H       -1.13130000      -1.71290000       0.04140000
H       -4.27150000      -0.47420000       1.36190000
H       -4.70030000       1.66670000      -0.06220000
H       -2.87300000       1.93880000      -0.05730000
H       -4.25460000      -0.54020000      -1.37570000
