20
Properties=species:S:1:pos:R:3 gdb_38354=T pbc="F F F"
C        0.13710000       1.69970000       0.28860000
C        1.64450000       1.35640000       0.08650000
C        1.27680000      -0.15200000       0.18520000
C       -0.23320000       0.20430000       0.01110000
N       -0.86120000      -0.11500000      -1.25400000
C       -0.31240000      -0.08380000      -2.38750000
O        0.93510000       0.32260000      -2.78090000
C        1.36330000       1.66080000      -2.47580000
C        2.25860000       1.78660000      -1.24770000
H       -0.08750000       1.97760000       1.32140000
H       -0.31880000       2.44200000      -0.36960000
H        2.29710000       1.70760000       0.89050000
H        1.71080000      -0.82090000      -0.55960000
H        1.46980000      -0.56040000       1.18060000
H       -0.87840000      -0.22350000       0.78210000
H       -0.86340000      -0.47800000      -3.24450000
H        1.91890000       1.98850000      -3.36030000
H        0.48050000       2.30340000      -2.38530000
H        2.55370000       2.84390000      -1.19380000
H        3.18010000       1.21460000      -1.41680000
