18
Properties=species:S:1:pos:R:3 gdb_126695=T pbc="F F F"
C       -0.13060000       1.53840000      -0.01910000
C       -0.00460000       0.00960000      -0.00450000
N       -1.27240000      -0.70970000       0.04570000
C       -2.06630000      -0.78510000      -1.17180000
C       -1.94000000      -0.81200000       1.23390000
N       -3.22240000      -1.10040000       1.31810000
O       -3.49100000      -1.18550000       2.67210000
N       -2.38580000      -0.92670000       3.41460000
C       -1.42550000      -0.69300000       2.56840000
H        0.86040000       2.00100000      -0.06440000
H       -0.70150000       1.88000000      -0.88760000
H       -0.63500000       1.90150000       0.88170000
H        0.52200000      -0.32980000      -0.90290000
H        0.60860000      -0.30950000       0.84450000
H       -1.39400000      -0.91730000      -2.02330000
H       -2.74000000      -1.64260000      -1.11230000
H       -2.68060000       0.11100000      -1.33870000
H       -0.43230000      -0.45800000       2.91480000
