18
Properties=species:S:1:pos:R:3 gdb_7986=T pbc="F F F"
C       -0.08690000       1.53130000      -0.01410000
C        0.07730000       0.01320000      -0.00170000
C        0.85660000      -0.54930000      -1.21690000
C        1.23450000      -1.96410000      -0.76680000
O        2.26060000      -2.58830000      -1.48440000
C        1.60320000      -1.75100000       0.70150000
O        2.43620000      -2.41390000       1.27040000
C        0.85220000      -0.53220000       1.22330000
H        0.88900000       2.03030000      -0.00520000
H       -0.62270000       1.86320000      -0.90960000
H       -0.64850000       1.87920000       0.85920000
H       -0.92120000      -0.44340000      -0.00550000
H        0.27410000      -0.52990000      -2.14090000
H        1.77590000       0.02620000      -1.38510000
H        0.31610000      -2.58440000      -0.77030000
H        2.82110000      -3.01410000      -0.81790000
H        1.59970000       0.18790000       1.58020000
H        0.22440000      -0.78230000       2.08360000
