19
Properties=species:S:1:pos:R:3 gdb_104934=T pbc="F F F"
C        0.19050000       1.43220000       0.34770000
C       -0.15770000       0.01560000      -0.11760000
C        0.67310000      -0.45440000      -1.31170000
C        2.05390000      -1.04350000      -1.03680000
C        0.93750000      -1.94860000      -1.46400000
C        0.50910000       0.30490000      -2.51740000
C        0.34700000       0.96070000      -3.52430000
C        0.17390000       1.68730000      -4.66060000
C        0.01910000       2.33390000      -5.66950000
H        1.23950000       1.50030000       0.65430000
H        0.02960000       2.15790000      -0.45500000
H       -0.43040000       1.72560000       1.19930000
H       -0.00340000      -0.69530000       0.70310000
H       -1.22030000      -0.03910000      -0.38250000
H        2.84340000      -0.83060000      -1.74730000
H        2.37040000      -1.06710000       0.00060000
H        0.48410000      -2.59870000      -0.72360000
H        0.96110000      -2.35220000      -2.46900000
H       -0.11590000       2.90060000      -6.55670000
