25
Properties=species:S:1:pos:R:3 gdb_120031=T pbc="F F F"
C        0.03680000       1.63890000       0.25200000
C       -0.02440000       0.11630000       0.10350000
C        0.76580000      -0.39930000      -1.10700000
C        0.74470000      -1.92020000      -1.24700000
C       -0.47660000      -2.61220000      -1.92820000
C       -1.71370000      -1.84120000      -2.34610000
O        0.33050000      -2.98630000      -3.06850000
C        1.54790000      -2.56110000      -2.41550000
C        2.42140000      -1.71440000      -3.32060000
H        1.07050000       1.98400000       0.36720000
H       -0.38130000       2.14050000      -0.62780000
H       -0.52650000       1.97820000       1.12690000
H        0.36710000      -0.35730000       1.01370000
H       -1.07120000      -0.20100000       0.02470000
H        0.39110000       0.08130000      -2.01870000
H        1.81050000      -0.07380000      -1.00760000
H        0.98960000      -2.36350000      -0.27670000
H       -0.78550000      -3.51150000      -1.37340000
H       -1.46000000      -0.90940000      -2.85840000
H       -2.29940000      -2.45460000      -3.03860000
H       -2.34620000      -1.61080000      -1.48270000
H        2.12120000      -3.43810000      -2.07770000
H        1.89810000      -0.81870000      -3.66480000
H        3.33800000      -1.41030000      -2.80350000
H        2.70880000      -2.29840000      -4.20090000
