19
Properties=species:S:1:pos:R:3 gdb_96418=T pbc="F F F"
O        0.06940000       1.42160000      -0.01790000
C        0.02870000       0.01150000       0.02790000
C        0.83450000      -0.57400000       1.19220000
C        0.71990000      -2.10150000       1.21010000
O       -0.63350000      -2.52490000       1.26840000
C       -1.38110000      -2.07830000       0.16110000
C       -1.42630000      -0.53510000       0.06430000
C       -2.17380000       0.07180000       1.16220000
C       -2.75950000       0.61070000       2.06470000
H       -0.45400000       1.74520000       0.72680000
H        0.47390000      -0.32170000      -0.91810000
H        1.88250000      -0.26970000       1.10430000
H        0.44650000      -0.17270000       2.13580000
H        1.20640000      -2.52710000       0.31480000
H        1.21030000      -2.52560000       2.09020000
H       -0.95370000      -2.46910000      -0.77870000
H       -2.38820000      -2.48630000       0.27590000
H       -1.91410000      -0.26410000      -0.88080000
H       -3.29920000       1.06170000       2.86080000
