17
Properties=species:S:1:pos:R:3 gdb_66784=T pbc="F F F"
O       -0.06130000       1.31270000       0.07960000
C        0.01560000      -0.07130000       0.01170000
C        1.08210000      -0.85550000       0.78620000
C        1.40810000      -2.13160000       0.04460000
C        0.49570000      -2.16550000       1.26050000
C       -0.75910000      -2.27350000       0.34960000
C       -1.26720000      -0.85910000      -0.02040000
C       -0.35330000      -0.83180000      -1.24960000
C        0.18250000      -2.24180000      -0.90860000
H        0.63860000       1.67860000      -0.47200000
H        1.83030000      -0.33790000       1.37200000
H        2.40660000      -2.52820000      -0.09390000
H        0.65340000      -2.58990000       2.24430000
H       -1.46880000      -3.08410000       0.49500000
H       -2.24250000      -0.41260000       0.13030000
H       -0.50320000      -0.36330000      -2.21540000
H        0.14680000      -3.03320000      -1.65340000
