23
Properties=species:S:1:pos:R:3 gdb_121282=T pbc="F F F"
C       -0.20930000       1.56040000       0.19500000
C       -0.05960000       0.07840000       0.04210000
C       -0.17450000      -0.62180000      -1.08800000
C       -0.04230000      -2.10830000      -0.87420000
C        0.52010000      -2.19610000       0.56530000
C        0.17730000      -0.83880000       1.23690000
C        1.24000000      -0.33990000       2.22610000
C        1.41680000      -1.25060000       3.43450000
O        2.37020000      -0.64720000       4.29780000
H        0.70310000       2.02320000       0.59000000
H       -0.44260000       2.03800000      -0.76060000
H       -1.01250000       1.80750000       0.90210000
H       -0.39180000      -0.18710000      -2.05880000
H       -1.02100000      -2.60280000      -0.96040000
H        0.60920000      -2.59580000      -1.60880000
H        0.13610000      -3.05620000       1.12050000
H        1.61070000      -2.30110000       0.52130000
H       -0.77290000      -0.92620000       1.79140000
H        2.20610000      -0.23850000       1.71540000
H        0.97390000       0.65630000       2.59810000
H        0.44620000      -1.38090000       3.94260000
H        1.75120000      -2.24950000       3.11320000
H        2.50970000      -1.23300000       5.04730000
