19
Properties=species:S:1:pos:R:3 gdb_41942=T pbc="F F F"
C       -0.03150000       1.51200000       0.11630000
O        1.32900000       1.92890000      -0.07130000
C        2.22050000       0.80070000       0.00570000
C        1.38570000      -0.29070000       0.66700000
C        1.66870000      -1.75870000       0.54340000
C        0.62770000      -2.58830000       0.45310000
C       -0.81230000      -2.12700000       0.44070000
O       -0.99950000      -0.72710000       0.63870000
C        0.03220000      -0.00510000       0.01480000
H       -0.40280000       1.82030000       1.10400000
H       -0.65210000       1.98100000      -0.65350000
H        2.55160000       0.50960000      -1.00280000
H        3.10090000       1.09930000       0.58320000
H        1.29280000      -0.02920000       1.73160000
H        2.68850000      -2.13300000       0.56450000
H        0.76850000      -3.66320000       0.37090000
H       -1.27720000      -2.43620000      -0.51320000
H       -1.37600000      -2.62470000       1.23900000
H        0.09580000      -0.28820000      -1.05020000
