21
Properties=species:S:1:pos:R:3 gdb_63665=T pbc="F F F"
C        0.01260000       1.54150000      -0.00240000
C       -0.02370000       0.02630000       0.05200000
C       -1.15800000      -0.60980000      -0.72890000
C        1.30320000      -0.71670000       0.10360000
C        0.40430000      -0.65440000       1.32000000
O        0.76720000       0.15120000       2.39960000
C        1.71640000      -0.47560000       3.24980000
C        2.07810000       0.42480000       4.33610000
C        2.39500000       1.14790000       5.24080000
H        0.80160000       1.94460000       0.63470000
H        0.18070000       1.88580000      -1.02920000
H       -0.93860000       1.96470000       0.34020000
H       -1.08050000      -0.36740000      -1.79520000
H       -1.15160000      -1.70060000      -0.63630000
H       -2.13050000      -0.24870000      -0.37450000
H        1.40320000      -1.65810000      -0.42720000
H        2.20490000      -0.11340000       0.13310000
H       -0.12010000      -1.56760000       1.60970000
H        1.30000000      -1.40890000       3.66400000
H        2.61520000      -0.75610000       2.67830000
H        2.67040000       1.79170000       6.03930000
