15
Properties=species:S:1:pos:R:3 gdb_128055=T pbc="F F F"
C       -0.07390000       1.37340000       0.07310000
N       -0.00050000      -0.06090000      -0.09810000
C        0.65400000      -0.61980000      -1.15070000
N        1.23250000       0.11320000      -2.03450000
C        0.61690000      -2.09900000      -1.14830000
C        1.13790000      -3.02080000      -2.00500000
O        0.83590000      -4.23870000      -1.57480000
N        0.07760000      -4.06430000      -0.37220000
N       -0.02300000      -2.83090000      -0.16670000
H        0.92640000       1.81120000       0.16250000
H       -0.56290000       1.84790000      -0.78480000
H       -0.64410000       1.59130000       0.97790000
H       -0.43690000      -0.67350000       0.56820000
H        1.67510000      -0.45300000      -2.75370000
H        1.71480000      -2.94940000      -2.91220000
