21
Properties=species:S:1:pos:R:3 gdb_118205=T pbc="F F F"
C        0.12630000       1.36580000      -0.10120000
O        0.11090000      -0.04170000      -0.07310000
C        0.60750000      -0.58190000       1.13830000
C        0.57380000      -2.10370000       1.03000000
C       -0.85660000      -2.65450000       0.94420000
N        1.39350000      -2.49070000      -0.11270000
C        1.90790000      -3.76140000      -0.20290000
N        2.48280000      -4.05350000      -1.43750000
O        1.85710000      -4.57370000       0.70440000
H        1.14610000       1.76500000       0.01580000
H       -0.26830000       1.67970000      -1.07060000
H       -0.50270000       1.79440000       0.69430000
H        1.64010000      -0.23800000       1.31010000
H       -0.00840000      -0.25010000       1.98950000
H        1.05940000      -2.52090000       1.91670000
H       -1.37880000      -2.24180000       0.07660000
H       -0.82570000      -3.74310000       0.86270000
H       -1.42590000      -2.39270000       1.84270000
H        1.20710000      -1.97730000      -0.96100000
H        2.90640000      -3.28940000      -1.94300000
H        3.05570000      -4.88320000      -1.40130000
