22
Properties=species:S:1:pos:R:3 gdb_120135=T pbc="F F F"
C        0.17860000       1.74540000       0.46340000
C        0.11530000       0.24150000       0.24690000
C        0.72400000      -0.45930000      -0.99840000
C        1.39700000      -1.41380000      -0.01180000
C        2.30280000      -0.72250000       0.92200000
C        3.23270000       0.42490000       0.59310000
C        3.53610000       1.30170000       1.80410000
O        4.42170000       2.32700000       1.37820000
N        0.84440000      -0.67560000       1.20910000
H        1.16650000       2.17430000       0.28760000
H       -0.52500000       2.24500000      -0.21210000
H       -0.12000000       1.98570000       1.48960000
H       -0.93350000      -0.05990000       0.33640000
H       -0.02360000      -0.93390000      -1.63610000
H        1.39750000       0.12540000      -1.63230000
H        1.35370000      -2.49670000      -0.08210000
H        2.74770000      -1.40010000       1.65200000
H        4.17850000       0.00110000       0.23170000
H        2.85480000       1.05490000      -0.21430000
H        2.60150000       1.72000000       2.20660000
H        3.98630000       0.68820000       2.60130000
H        4.61540000       2.88970000       2.13350000
