15
Properties=species:S:1:pos:R:3 gdb_42871=T pbc="F F F"
O        0.00650000       0.00440000       0.31570000
C       -0.01150000       1.18420000       0.15730000
C       -1.06920000       2.28360000      -0.05190000
C       -1.33180000       3.02000000       1.26350000
C       -0.01220000       3.33250000       1.99320000
O       -0.00120000       3.77650000       3.11260000
C        1.29250000       3.05480000       1.22380000
C        1.00990000       2.31110000      -0.08330000
O       -0.05010000       3.02190000      -0.78810000
H       -1.96210000       2.07400000      -0.64450000
H       -1.83560000       3.97120000       1.05550000
H       -1.97810000       2.45190000       1.94070000
H        1.76440000       4.01890000       1.00110000
H        1.97380000       2.50420000       1.88100000
H        1.88970000       2.12500000      -0.70280000
