21
Properties=species:S:1:pos:R:3 gdb_32430=T pbc="F F F"
C       -0.01440000       1.41200000      -0.09600000
N        0.02870000      -0.02020000       0.12910000
C       -1.18550000      -0.71510000       0.03120000
C       -2.45870000      -0.19180000      -0.02070000
N       -3.33630000      -1.26080000      -0.03670000
C       -2.64690000      -2.44610000      -0.01010000
C       -3.36140000      -3.75760000      -0.03940000
C       -1.29870000      -2.14490000       0.03550000
C       -0.13890000      -3.09080000       0.09100000
H        0.99950000       1.81830000      -0.05480000
H       -0.46990000       1.69710000      -1.06030000
H       -0.59840000       1.89000000       0.69900000
H        0.76270000      -0.46790000      -0.40340000
H       -2.81460000       0.82400000      -0.03110000
H       -4.33660000      -1.18090000      -0.06360000
H       -3.86920000      -3.93560000      -0.99660000
H       -2.65930000      -4.58040000       0.11210000
H       -4.12130000      -3.82730000       0.74930000
H        0.46980000      -3.06230000      -0.82410000
H        0.53260000      -2.85040000       0.92460000
H       -0.46530000      -4.12660000       0.22000000
