19
Properties=species:S:1:pos:R:3 gdb_36729=T pbc="F F F"
C        0.02470000      -1.19900000      -0.12110000
C       -0.00540000       0.00080000      -0.05430000
C       -0.00680000       1.45580000       0.02690000
C        1.41320000       2.05530000       0.04330000
C        1.39680000       3.57730000       0.12350000
C        2.79240000       4.23340000       0.07760000
O        2.58570000       5.40530000      -0.69470000
C        1.62950000       5.02830000      -1.64940000
O        0.72580000       4.14780000      -1.00900000
H        0.03570000      -2.25890000      -0.18130000
H       -0.55490000       1.87880000      -0.82250000
H       -0.54770000       1.77210000       0.92880000
H        1.96990000       1.65680000       0.90030000
H        1.94870000       1.74510000      -0.86080000
H        0.85370000       3.89570000       1.02470000
H        3.17290000       4.52630000       1.05790000
H        3.52220000       3.56540000      -0.40710000
H        1.09700000       5.92100000      -1.99150000
H        2.10810000       4.52070000      -2.50700000
