23
Properties=species:S:1:pos:R:3 gdb_94198=T pbc="F F F"
C       -0.06480000       1.46780000      -0.27320000
C        0.04760000      -0.00830000       0.07730000
C        1.09010000      -0.86340000      -0.66740000
O        1.64330000      -1.36200000       0.56680000
C        0.80650000      -0.47380000       1.36560000
C        1.66690000       0.56710000       2.07410000
C       -0.02690000      -1.25520000       2.36070000
C       -0.53850000      -2.63280000       2.03490000
C        0.55850000      -2.45650000       3.05740000
H        0.91060000       1.96360000      -0.28470000
H       -0.50810000       1.59150000      -1.26760000
H       -0.70500000       2.00120000       0.43780000
H       -0.94280000      -0.47060000       0.04550000
H        0.70830000      -1.67070000      -1.30330000
H        1.83030000      -0.28450000      -1.23780000
H        2.31150000       1.10040000       1.37090000
H        1.04510000       1.30040000       2.59910000
H        2.30490000       0.07140000       2.81170000
H       -0.68310000      -0.62370000       2.95560000
H       -1.53010000      -2.90770000       2.37700000
H       -0.24800000      -3.06080000       1.08230000
H        1.55430000      -2.76240000       2.75710000
H        0.32820000      -2.61220000       4.10540000
