19
Properties=species:S:1:pos:R:3 gdb_99582=T pbc="F F F"
C       -0.05440000       1.57140000       0.04990000
C        0.04000000       0.04570000       0.02990000
C        0.66580000      -0.49340000      -1.27890000
C        0.83480000      -1.95960000      -1.19290000
N        0.94650000      -3.10690000      -1.11520000
N       -0.06690000      -0.12850000      -2.48010000
C       -1.43000000      -0.60710000      -2.66770000
C        0.54050000       0.60130000      -3.46990000
O        0.01860000       0.94380000      -4.50540000
H        0.93380000       2.03260000      -0.05350000
H       -0.68470000       1.94600000      -0.76150000
H       -0.48410000       1.91350000       0.99510000
H        0.65900000      -0.31170000       0.85950000
H       -0.94770000      -0.40580000       0.16810000
H        1.66870000      -0.05960000      -1.37830000
H       -2.12270000      -0.13300000      -1.96430000
H       -1.72480000      -0.34820000      -3.68430000
H       -1.47630000      -1.69290000      -2.53520000
H        1.58650000       0.85590000      -3.20880000
