15
Properties=species:S:1:pos:R:3 gdb_130891=T pbc="F F F"
O       -0.12420000       0.00120000       0.29290000
C       -0.01040000       1.19650000       0.16620000
C        1.24540000       1.92870000      -0.05220000
N        2.44150000       1.29340000      -0.13440000
N        3.26090000       2.31260000      -0.32770000
C        4.65350000       2.74560000      -0.53480000
C        4.05300000       4.21020000      -0.60130000
C        2.70340000       3.53570000      -0.37690000
C        1.34960000       3.34940000      -0.19860000
H       -0.89800000       1.86910000       0.20800000
H        5.30850000       2.53640000       0.31350000
H        5.09650000       2.36940000      -1.45940000
H        4.39160000       4.87300000       0.19750000
H        4.18180000       4.70740000      -1.56470000
H        0.54530000       4.06570000      -0.17070000
