20
Properties=species:S:1:pos:R:3 gdb_8460=T pbc="F F F"
C       -0.09130000       1.49560000      -0.06370000
C        0.08730000      -0.00900000       0.05940000
O        0.96830000      -0.52040000      -0.97320000
C        1.95740000      -1.25120000      -0.21340000
C        2.95790000      -1.89310000      -1.13220000
C        1.09050000      -2.00660000       0.83340000
C        0.81870000      -0.54440000       1.30410000
C        2.30560000      -0.25800000       0.92890000
H        0.84630000       2.03310000       0.10110000
H       -0.45330000       1.74760000      -1.06500000
H       -0.82890000       1.85180000       0.66380000
H       -0.89380000      -0.49370000      -0.04670000
H        3.46710000      -1.13390000      -1.73410000
H        3.70890000      -2.44390000      -0.55890000
H        2.46060000      -2.58920000      -1.81480000
H        0.24940000      -2.59300000       0.45340000
H        1.68000000      -2.58460000       1.54760000
H        0.39600000      -0.30540000       2.27940000
H        3.00500000      -0.67140000       1.65810000
H        2.60060000       0.75330000       0.64160000
