16
Properties=species:S:1:pos:R:3 gdb_69012=T pbc="F F F"
C        0.01240000       1.56380000       0.10380000
C        0.07760000       0.07050000       0.01050000
C       -0.83280000      -0.88770000       0.77250000
C        0.66130000      -0.97960000       0.97520000
N        1.29570000      -1.65430000      -0.16820000
C        0.72760000      -0.76140000      -1.09450000
O        0.76240000      -0.72190000      -2.29080000
C        1.33410000      -0.79540000       2.21380000
C        1.88610000      -0.64610000       3.27210000
H        0.98010000       2.01620000      -0.13210000
H       -0.72540000       1.96020000      -0.60140000
H       -0.27650000       1.88160000       1.11000000
H       -1.39710000      -0.42800000       1.57890000
H       -1.34500000      -1.69610000       0.25810000
H        1.30380000      -2.66130000      -0.29100000
H        2.38300000      -0.51190000       4.20100000
