23
Properties=species:S:1:pos:R:3 gdb_60417=T pbc="F F F"
C        0.05020000       1.54270000      -0.05900000
C        0.02750000       0.01730000       0.03780000
O        0.70350000      -0.43430000       1.21090000
C       -1.39530000      -0.55310000      -0.04440000
C       -1.43760000      -2.08480000      -0.01920000
C       -2.85100000      -2.65070000      -0.02090000
C       -3.66440000      -2.58010000      -1.33590000
O       -3.82470000      -4.01190000      -1.37130000
C       -3.01010000      -4.17880000      -0.19300000
H        1.07550000       1.91350000       0.02160000
H       -0.37170000       1.88760000      -1.00860000
H       -0.54090000       1.99210000       0.74940000
H        0.61960000      -0.40000000      -0.78700000
H        0.26610000      -0.03160000       1.96990000
H       -1.98280000      -0.15200000       0.79600000
H       -1.87570000      -0.17670000      -0.95740000
H       -0.89090000      -2.47880000      -0.88750000
H       -0.89780000      -2.43700000       0.86730000
H       -3.41200000      -2.26560000       0.83640000
H       -4.62940000      -2.06050000      -1.29230000
H       -3.10320000      -2.20910000      -2.20590000
H       -2.07630000      -4.71550000      -0.41170000
H       -3.54460000      -4.70990000       0.60410000
