14
Properties=species:S:1:pos:R:3 gdb_105152=T pbc="F F F"
O        0.08150000       1.36220000      -0.37920000
C        0.02460000       0.14500000       0.32850000
C       -1.35440000      -0.48420000       0.22020000
O       -1.66110000      -1.04720000      -1.06090000
C       -1.55000000      -1.95280000       0.04690000
C       -0.45440000      -2.88190000       0.05950000
C        0.42870000      -3.69640000       0.08390000
C       -2.43900000       0.27030000       0.82660000
N       -3.28900000       0.86200000       1.33840000
H       -0.06770000       1.16630000      -1.31130000
H        0.76260000      -0.58530000      -0.02560000
H        0.24170000       0.37830000       1.37510000
H       -2.50560000      -2.35640000       0.37810000
H        1.21410000      -4.41230000       0.10310000
