17
Properties=species:S:1:pos:R:3 gdb_71864=T pbc="F F F"
C       -0.05560000       1.51740000       0.00340000
C        0.02780000       0.01990000      -0.04200000
C        0.84710000      -0.80100000      -1.04150000
C       -0.07950000      -2.00760000      -0.71850000
O        0.52030000      -2.80790000       0.31090000
C        0.52990000      -2.07340000       1.47040000
O        1.06030000      -2.45270000       2.47370000
C       -0.25550000      -0.82310000       1.22100000
C       -1.06700000      -1.02580000      -0.03000000
H        0.89060000       1.95400000       0.34220000
H       -0.27420000       1.92430000      -0.99010000
H       -0.84180000       1.85460000       0.68610000
H        0.68630000      -0.43560000      -2.06000000
H        1.91660000      -0.95250000      -0.86460000
H       -0.40780000      -2.66360000      -1.52020000
H       -0.65240000      -0.29480000       2.07710000
H       -2.14420000      -0.96090000      -0.10740000
