20
Properties=species:S:1:pos:R:3 gdb_102743=T pbc="F F F"
O        0.75340000       0.26140000       0.92670000
C       -0.04380000       0.41490000      -0.22630000
C       -1.43420000      -0.24690000      -0.07590000
C       -2.31250000      -0.09310000      -1.33580000
N       -2.61100000       1.30870000      -1.60100000
C       -1.82360000       1.97560000      -2.63650000
C       -3.23840000       1.59220000      -2.88720000
C       -1.26550000      -1.65930000       0.26100000
C       -1.07510000      -2.81860000       0.52180000
H        0.80970000      -0.68470000       1.10800000
H       -0.17380000       1.48980000      -0.37070000
H        0.45110000       0.00500000      -1.12240000
H       -1.94730000       0.25700000       0.75240000
H       -1.82170000      -0.59210000      -2.19070000
H       -3.25980000      -0.61380000      -1.16150000
H       -1.55690000       3.00920000      -2.43570000
H       -1.05540000       1.39570000      -3.14560000
H       -3.41240000       0.75700000      -3.56400000
H       -4.02640000       2.33960000      -2.87340000
H       -0.93620000      -3.84400000       0.76120000
