20
Properties=species:S:1:pos:R:3 gdb_10924=T pbc="F F F"
C       -0.39240000       1.56450000       0.30620000
C       -0.15220000       0.06390000       0.21330000
C        0.30550000      -0.48910000      -1.14460000
O        1.59690000       0.07830000      -1.42100000
C        1.52500000      -1.08180000      -0.57130000
C        2.34130000      -2.27630000      -0.94510000
C        1.16600000      -0.56530000       0.83890000
C        2.18270000       0.33290000       1.53090000
H        0.43580000       2.11860000      -0.14230000
H       -1.31100000       1.84310000      -0.22240000
H       -0.49980000       1.88850000       1.34670000
H       -1.02670000      -0.48600000       0.57680000
H       -0.29100000      -0.78650000      -2.00140000
H        2.27590000      -2.46340000      -2.02030000
H        3.39670000      -2.12410000      -0.69130000
H        1.99380000      -3.16680000      -0.41080000
H        0.89350000      -1.40220000       1.49120000
H        2.53620000       1.11500000       0.85420000
H        1.75280000       0.81350000       2.41600000
H        3.05200000      -0.24630000       1.86190000
