19
Properties=species:S:1:pos:R:3 gdb_50985=T pbc="F F F"
O       -1.03980000       0.85360000       0.59060000
C       -0.39670000       1.83720000       0.33120000
C        1.05870000       1.83790000      -0.09700000
C        1.31450000       2.73290000      -1.30030000
C        0.68490000       2.24200000      -2.60750000
C        1.24040000       0.97270000      -3.06920000
C        1.71170000      -0.07230000      -3.43040000
C        1.38290000       4.22870000      -1.08440000
C        2.63660000       3.44900000      -1.39930000
H       -0.85130000       2.85360000       0.40190000
H        1.63960000       2.21070000       0.75840000
H        1.36900000       0.80680000      -0.28960000
H       -0.40170000       2.13740000      -2.48220000
H        0.82680000       3.00430000      -3.38310000
H        2.11850000      -0.99700000      -3.75740000
H        0.97500000       4.87790000      -1.85190000
H        1.25730000       4.60750000      -0.07550000
H        3.36160000       3.29850000      -0.60700000
H        3.07610000       3.56280000      -2.38430000
