16
Properties=species:S:1:pos:R:3 gdb_18438=T pbc="F F F"
C       -0.27890000       1.50640000      -0.03720000
C        0.03480000       0.03050000       0.06790000
O        1.11160000      -0.42960000      -0.81320000
C        1.69980000      -1.14510000       0.26230000
C        2.22610000      -0.22290000       1.33650000
C        2.81500000       1.06230000       1.09080000
C        3.36710000       2.11720000       0.91810000
C        0.73900000      -0.58710000       1.27980000
H        0.58840000       2.11880000       0.20880000
H       -0.60230000       1.74500000      -1.05560000
H       -1.09900000       1.75730000       0.64450000
H       -0.85920000      -0.56500000      -0.16170000
H        2.08710000      -2.13940000       0.06940000
H        2.71260000      -0.78110000       2.13540000
H        3.84180000       3.05220000       0.75150000
H        0.24740000      -1.05280000       2.12350000
