15
Properties=species:S:1:pos:R:3 gdb_17371=T pbc="F F F"
N        0.03750000       1.19580000       0.43100000
C        0.04830000      -0.02760000      -0.17170000
O        0.94560000      -0.41740000      -0.88830000
C       -1.19830000      -0.88650000       0.06910000
O       -0.87510000      -2.15870000       0.70400000
C       -1.91940000      -1.95350000       1.65760000
C       -1.62810000      -0.77860000       2.52840000
C       -2.23430000      -0.56760000       1.14560000
H        0.85920000       1.77220000       0.34230000
H       -0.64030000       1.42300000       1.13770000
H       -1.65930000      -1.07830000      -0.90710000
H       -2.54750000      -2.79820000       1.91320000
H       -2.32500000      -0.61470000       3.34450000
H       -0.59540000      -0.51560000       2.73880000
H       -3.18420000      -0.07750000       0.98300000
