20
Properties=species:S:1:pos:R:3 gdb_64100=T pbc="F F F"
C       -0.09760000       1.55400000       0.04250000
C       -0.02090000       0.02520000      -0.00540000
O       -1.33200000      -0.53850000      -0.05940000
C        0.69540000      -0.47800000      -1.26330000
C        0.80130000      -2.00650000      -1.22880000
C        1.36720000      -2.53460000       0.06610000
N        2.09530000      -3.56920000       0.10340000
O        0.96540000      -1.91020000       1.21980000
C        0.74380000      -0.49940000       1.21640000
H        0.89570000       2.01250000       0.01070000
H       -0.67620000       1.91780000      -0.81080000
H       -0.59570000       1.89320000       0.95870000
H       -1.78870000      -0.32620000       0.76150000
H        0.14340000      -0.15630000      -2.15160000
H        1.69090000      -0.02180000      -1.31120000
H       -0.20670000      -2.42310000      -1.33100000
H        1.40790000      -2.39630000      -2.04710000
H        2.33800000      -3.78490000       1.07330000
H        1.71080000       0.01840000       1.29250000
H        0.18420000      -0.29230000       2.13550000
