23
Properties=species:S:1:pos:R:3 gdb_114621=T pbc="F F F"
C        0.00130000       1.58370000      -0.06290000
C       -0.01320000       0.06980000       0.17350000
C       -1.39620000      -0.54880000      -0.00790000
C       -2.02770000      -0.66930000      -1.44090000
C       -2.22140000      -2.17380000      -1.20920000
C       -0.89180000      -2.82170000      -0.94570000
C       -1.56520000      -2.06870000       0.17150000
C       -1.93870000      -2.72200000       1.46240000
O       -0.79780000      -2.70230000       2.31860000
H        1.00460000       1.99950000       0.07300000
H       -0.32570000       1.83210000      -1.07880000
H       -0.66950000       2.09970000       0.63360000
H        0.70110000      -0.41160000      -0.50610000
H        0.33290000      -0.15680000       1.18920000
H       -2.10380000      -0.03210000       0.65230000
H       -2.96090000      -0.11140000      -1.54370000
H       -1.37430000      -0.40900000      -2.28150000
H       -3.09150000      -2.75030000      -1.50170000
H       -0.90920000      -3.90170000      -0.83590000
H        0.00880000      -2.44170000      -1.42110000
H       -2.77930000      -2.17920000       1.92580000
H       -2.27860000      -3.75410000       1.27460000
H       -1.07280000      -3.00790000       3.18850000
