15
Properties=species:S:1:pos:R:3 gdb_6753=T pbc="F F F"
C        0.00490000       1.39850000       0.02160000
O       -0.00840000      -0.01050000      -0.03340000
C        0.63940000      -0.59020000       1.07670000
C        0.60180000      -2.04280000       0.98210000
C        0.58410000      -3.24630000       0.92810000
C        0.52600000      -4.69590000       0.79770000
N        1.14030000      -5.36460000       1.81780000
O       -0.02840000      -5.25100000      -0.13010000
H        1.03150000       1.79800000       0.02410000
H       -0.51350000       1.75860000      -0.86910000
H       -0.51450000       1.77780000       0.91590000
H        1.69050000      -0.25510000       1.13580000
H        0.15900000      -0.27390000       2.02000000
H        1.65350000      -4.87980000       2.53280000
H        1.18760000      -6.36890000       1.76580000
