19
Properties=species:S:1:pos:R:3 gdb_3100=T pbc="F F F"
C       -0.27290000       1.46330000      -0.08790000
C        0.12790000      -0.00520000       0.10490000
C        0.76980000      -0.59320000      -1.13600000
C        0.92030000      -2.09160000      -1.35560000
C        0.45710000      -3.11760000      -0.34260000
C       -0.06510000      -1.30900000      -2.18100000
O       -1.42070000      -1.55880000      -1.92870000
H        0.59510000       2.08180000      -0.34180000
H       -0.99990000       1.57430000      -0.90080000
H       -0.72300000       1.87660000       0.82020000
H        0.82290000      -0.08290000       0.95070000
H       -0.75620000      -0.58880000       0.37670000
H        1.58240000       0.01340000      -1.53230000
H        1.82460000      -2.38030000      -1.88560000
H       -0.53470000      -2.88320000       0.04660000
H        0.39980000      -4.10930000      -0.80400000
H        1.15370000      -3.18340000       0.50030000
H        0.16920000      -1.14050000      -3.23220000
H       -1.90140000      -0.73210000      -2.04070000
