19
Properties=species:S:1:pos:R:3 gdb_101075=T pbc="F F F"
O       -0.06850000       1.47780000       0.09520000
C       -0.05400000       0.09230000       0.36400000
C       -1.36800000      -0.55310000      -0.09170000
O       -1.61980000      -0.18820000      -1.44860000
C       -1.39960000      -2.06630000       0.10060000
C       -1.73040000      -2.60670000       1.48460000
C       -2.74240000      -2.72440000       0.38510000
C       -0.46490000      -2.78710000      -0.72350000
C        0.30900000      -3.34540000      -1.45840000
H       -0.45230000       1.55800000      -0.78820000
H        0.78810000      -0.41280000      -0.13840000
H        0.07940000      -0.03540000       1.44360000
H       -2.18930000      -0.10760000       0.48100000
H       -1.05640000      -0.74730000      -2.00030000
H       -1.21050000      -3.50050000       1.80750000
H       -1.90010000      -1.87480000       2.26720000
H       -3.60820000      -2.07190000       0.40170000
H       -2.91620000      -3.70160000      -0.04860000
H        0.99840000      -3.85670000      -2.08390000
