14
Properties=species:S:1:pos:R:3 gdb_24510=T pbc="F F F"
O       -0.05970000       1.32920000       0.00980000
C        1.21740000       1.81300000       0.00010000
C        2.14810000       0.82880000      -0.01410000
C        1.40840000      -0.40760000      -0.01380000
C        0.05670000      -0.03070000       0.00130000
C       -0.96780000      -0.96420000       0.00600000
N       -0.68570000      -2.26580000      -0.00380000
C        0.60580000      -2.64420000      -0.01830000
C        1.69080000      -1.77710000      -0.02400000
H        1.29740000       2.88870000       0.00510000
H        3.21830000       0.96160000      -0.02360000
H       -2.01280000      -0.66700000       0.01770000
H        0.77650000      -3.71750000      -0.02580000
H        2.70610000      -2.15690000      -0.03580000
