16
Properties=species:S:1:pos:R:3 gdb_108962=T pbc="F F F"
O        0.16920000       1.27520000      -0.11990000
C        0.03510000      -0.12210000      -0.11530000
C       -1.40010000      -0.53120000      -0.01060000
N       -2.38050000       0.28710000      -0.00800000
C       -3.57770000      -0.51320000       0.03190000
C       -3.76580000      -1.46130000      -1.14420000
O       -3.01520000      -1.33180000      -2.30370000
C       -3.08130000      -1.96320000       0.09580000
O       -1.66850000      -1.85320000       0.10490000
H       -0.72900000       1.63430000      -0.09710000
H        0.45420000      -0.56370000      -1.03290000
H        0.58820000      -0.56560000       0.72630000
H       -4.43290000      -0.10780000       0.55890000
H       -4.78450000      -1.82580000      -1.27600000
H       -3.11200000      -0.42900000      -2.62710000
H       -3.44990000      -2.78080000       0.70070000
