19
Properties=species:S:1:pos:R:3 gdb_38843=T pbc="F F F"
C        0.04470000       1.53820000      -0.27500000
C        1.30460000       0.75630000      -0.02080000
O        2.00990000       0.89440000       1.18260000
C        1.47640000       0.20410000       2.31830000
C        0.36690000       1.02170000       3.01970000
C       -0.93010000       0.43980000       2.39760000
C       -0.38100000      -0.55110000       1.35110000
O        0.85590000      -0.99680000       1.95350000
C       -0.02280000       0.04340000      -0.00970000
H       -0.28910000       2.22500000       0.49370000
H       -0.15020000       1.87200000      -1.28850000
H        1.98740000       0.58750000      -0.84710000
H        2.33880000      -0.02200000       2.94780000
H        0.40130000       0.84760000       4.09780000
H        0.50310000       2.09040000       2.84460000
H       -1.50550000      -0.10740000       3.14760000
H       -1.58610000       1.19370000       1.96030000
H       -1.01050000      -1.43350000       1.22950000
H       -0.24570000      -0.59270000      -0.85960000
