20
Properties=species:S:1:pos:R:3 gdb_96305=T pbc="F F F"
O       -0.26130000       1.17790000      -1.03470000
C       -0.12340000       0.17670000      -0.03760000
C       -1.40130000      -0.65860000      -0.14840000
C       -1.48320000      -1.89600000       0.75340000
C       -0.28100000      -2.85010000       0.62750000
O        0.27810000      -2.89200000      -0.68890000
C        1.04080000      -1.84560000      -1.13520000
N        1.60410000      -1.88650000      -2.26910000
C        1.18250000      -0.64490000      -0.23220000
H        0.53270000       1.72130000      -1.03460000
H       -0.07540000       0.64310000       0.96060000
H       -2.25420000      -0.00320000       0.05160000
H       -1.48940000      -0.96620000      -1.19580000
H       -1.57660000      -1.60640000       1.80740000
H       -2.40250000      -2.43320000       0.49810000
H        0.49840000      -2.59890000       1.35450000
H       -0.58550000      -3.87940000       0.83140000
H        1.39370000      -2.77520000      -2.72980000
H        1.94790000      -0.00540000      -0.67660000
H        1.56130000      -0.95900000       0.74610000
