19
Properties=species:S:1:pos:R:3 gdb_128573=T pbc="F F F"
C       -0.79790000       0.46250000       0.44760000
O        0.20660000       0.81550000      -0.49230000
C        0.57420000      -0.16930000      -1.33340000
C        0.20680000      -1.49360000      -1.47310000
C        0.99270000      -1.95140000      -2.56150000
C        1.01290000      -3.31780000      -3.17070000
N        1.77240000      -0.99050000      -3.04400000
N        1.50000000       0.10640000      -2.28280000
C        2.21420000       1.34420000      -2.49000000
H       -1.71890000       0.15140000      -0.06000000
H       -0.45580000      -0.34930000       1.10070000
H       -0.99050000       1.35550000       1.04340000
H       -0.51520000      -2.04350000      -0.89360000
H        0.02940000      -3.59710000      -3.56530000
H        1.73350000      -3.34510000      -3.99100000
H        1.29530000      -4.08090000      -2.43660000
H        2.35320000       1.49180000      -3.56230000
H        1.62850000       2.16640000      -2.07670000
H        3.19660000       1.32680000      -2.00450000
