18
Properties=species:S:1:pos:R:3 gdb_33203=T pbc="F F F"
C       -0.55670000       1.33030000       0.22410000
C        0.11780000      -0.00800000      -0.02010000
O        0.58720000      -0.50560000       1.21950000
C        1.23330000      -1.74740000       1.10840000
C        1.67280000      -2.15340000       2.47200000
C        1.58130000      -1.60570000       3.70640000
N        2.18710000      -2.45520000       4.63000000
C        2.60250000      -3.44790000       3.91910000
O        2.33160000      -3.34700000       2.59260000
H        0.15010000       2.04210000       0.65930000
H       -0.93180000       1.74340000      -0.71680000
H       -1.39780000       1.21560000       0.91350000
H       -0.58940000      -0.72460000      -0.47050000
H        0.95890000       0.10220000      -0.72490000
H        0.55970000      -2.51240000       0.68160000
H        2.10370000      -1.68660000       0.43020000
H        1.12810000      -0.67210000       3.99300000
H        3.12880000      -4.33370000       4.23740000
