19
Properties=species:S:1:pos:R:3 gdb_18409=T pbc="F F F"
C       -0.01490000       1.53290000       0.06210000
C        1.43390000       2.03780000      -0.00420000
O        2.10500000       1.84620000      -1.23760000
C        2.44060000       0.49870000      -1.52680000
C        1.30310000      -0.24650000      -2.19980000
N        0.98990000      -1.59680000      -1.69100000
C        0.03680000      -0.49520000      -1.46650000
C       -0.16010000       0.00470000      -0.04590000
H       -0.42750000       1.87290000       1.02110000
H       -0.60220000       2.02290000      -0.72440000
H        1.44690000       3.12000000       0.16440000
H        2.01460000       1.56880000       0.80940000
H        3.31240000       0.53700000      -2.18930000
H        2.73730000      -0.03830000      -0.61490000
H        1.21720000      -0.07990000      -3.27180000
H        0.67370000      -2.19410000      -2.45030000
H       -0.86470000      -0.49140000      -2.07760000
H        0.56830000      -0.48690000       0.60840000
H       -1.15010000      -0.30190000       0.31130000
