15
Properties=species:S:1:pos:R:3 gdb_19501=T pbc="F F F"
N       -0.17270000      -1.17560000      -0.13320000
C       -0.06220000      -0.02770000      -0.04200000
C        0.01620000       1.40660000       0.03150000
C        0.49580000       2.14180000       1.27510000
C        1.28520000       1.33560000       2.29060000
O        2.26030000       0.62050000       1.54170000
C        2.58530000       1.36290000       0.37290000
C        1.33920000       2.15940000       0.03110000
H       -0.78740000       1.89980000      -0.50630000
H       -0.07530000       3.00030000       1.60640000
H        1.75280000       2.02300000       3.01360000
H        0.69310000       0.59850000       2.84110000
H        3.42100000       2.05790000       0.55300000
H        2.88710000       0.64450000      -0.39510000
H        1.42410000       3.03170000      -0.60520000
