23
Properties=species:S:1:pos:R:3 gdb_111832=T pbc="F F F"
C        0.15300000       1.53390000      -0.12610000
C       -0.18940000       0.05760000       0.11100000
C        0.61290000      -0.54240000       1.24590000
C        0.76020000      -2.03480000       1.47410000
C        0.18730000      -3.05820000       0.49290000
C        1.25900000      -3.66380000      -0.43680000
C        2.19200000      -2.61410000      -0.99250000
C        2.49920000      -1.50180000      -0.32170000
C        1.95930000      -1.22310000       1.03280000
H        1.20860000       1.65340000      -0.39180000
H       -0.44830000       1.95600000      -0.93760000
H       -0.03130000       2.13370000       0.77220000
H       -1.26110000      -0.03750000       0.33270000
H       -0.01310000      -0.50370000      -0.81190000
H        0.55660000       0.04420000       2.16130000
H        0.75330000      -2.34760000       2.51370000
H       -0.31060000      -3.85810000       1.05080000
H       -0.58830000      -2.59720000      -0.12770000
H        1.84800000      -4.41500000       0.11020000
H        0.77380000      -4.20860000      -1.25470000
H        2.63390000      -2.79910000      -1.96840000
H        3.18450000      -0.77490000      -0.75260000
H        2.71520000      -1.00220000       1.78300000
