21
Properties=species:S:1:pos:R:3 gdb_72278=T pbc="F F F"
C       -0.07560000       1.56530000       0.00460000
C       -0.01560000       0.06470000      -0.04510000
C        0.64260000      -0.72480000      -1.18710000
C       -0.40910000      -1.86660000      -0.98500000
C        0.16820000      -3.12260000      -0.33860000
O        1.13050000      -2.78520000       0.64920000
C        0.63250000      -1.94500000       1.67710000
C       -0.22290000      -0.78800000       1.19070000
C       -1.15200000      -0.96510000       0.02360000
H        0.90490000       1.99530000       0.24430000
H       -0.38960000       1.98100000      -0.96030000
H       -0.78240000       1.91410000       0.76500000
H        0.49290000      -0.21460000      -2.14320000
H        1.69670000      -0.99250000      -1.08250000
H       -0.98030000      -2.11330000      -1.88220000
H       -0.64110000      -3.73590000       0.09460000
H        0.70640000      -3.73670000      -1.06800000
H        0.02730000      -2.53880000       2.38620000
H        1.51560000      -1.58740000       2.21840000
H       -0.65190000      -0.22030000       2.01440000
H       -2.22410000      -0.81480000       0.08080000
