21
Properties=species:S:1:pos:R:3 gdb_95590=T pbc="F F F"
C       -0.63690000       1.29050000       0.05970000
C        0.02000000      -0.09400000       0.09340000
O        0.63210000      -0.27930000      -1.17490000
C        0.86050000      -1.61400000      -1.58360000
C        2.23500000      -2.16830000      -1.31900000
C        3.23800000      -1.60710000      -0.64840000
C        3.19700000      -0.26460000       0.06190000
C        2.28490000      -0.27020000       1.27500000
C        0.95440000      -0.22160000       1.27380000
H        0.12330000       2.06120000      -0.09570000
H       -1.36350000       1.34390000      -0.75550000
H       -1.14910000       1.49780000       1.00370000
H       -0.77870000      -0.84810000       0.21330000
H        0.10140000      -2.28570000      -1.14630000
H        0.68790000      -1.63180000      -2.66980000
H        2.39140000      -3.14760000      -1.77040000
H        4.17010000      -2.16200000      -0.57350000
H        4.20910000      -0.00380000       0.38470000
H        2.87390000       0.50680000      -0.63980000
H        2.78190000      -0.36130000       2.23840000
H        0.43560000      -0.25050000       2.23130000
