17
Properties=species:S:1:pos:R:3 gdb_80079=T pbc="F F F"
O        0.23260000       1.36860000      -0.06910000
C        0.03470000       0.00610000      -0.00570000
C       -0.44720000      -0.71990000       1.25610000
C       -0.89500000       0.03380000       2.43570000
C       -1.99900000       0.79320000       2.47460000
C       -2.92010000       0.88950000       1.32380000
O       -2.47230000       1.60640000       0.13590000
C       -2.58300000       0.16900000       0.07920000
C       -1.32590000      -0.64100000      -0.00910000
H       -0.63200000       1.79480000       0.04580000
H        0.81230000      -0.52510000      -0.54780000
H        0.04950000      -1.66310000       1.46310000
H       -0.27110000      -0.03940000       3.32250000
H       -2.26710000       1.32960000       3.37880000
H       -3.96570000       1.09140000       1.54550000
H       -3.40020000      -0.17070000      -0.55350000
H       -1.43510000      -1.55280000      -0.58650000
