19
Properties=species:S:1:pos:R:3 gdb_99537=T pbc="F F F"
C        0.07690000       1.57200000       0.00360000
C        0.02290000       0.04380000      -0.02000000
C       -1.42060000      -0.51050000       0.00280000
C       -2.15770000      -0.13990000      -1.20210000
C       -2.73500000       0.15460000      -2.21420000
C       -1.41940000      -2.05910000       0.18660000
N       -0.76070000      -2.42560000       1.44190000
C       -2.78910000      -2.60940000       0.09470000
N       -3.84560000      -3.07910000       0.10170000
H        1.11320000       1.92110000      -0.02310000
H       -0.44850000       2.00160000      -0.85430000
H       -0.38450000       1.97090000       0.91390000
H        0.52300000      -0.33400000      -0.92010000
H        0.55210000      -0.37320000       0.84030000
H       -1.94110000      -0.08650000       0.87420000
H       -3.26620000       0.41230000      -3.09710000
H       -0.83650000      -2.48820000      -0.63620000
H       -1.35380000      -2.17350000       2.22830000
H       -0.63800000      -3.43240000       1.48710000
