12
Properties=species:S:1:pos:R:3 gdb_23977=T pbc="F F F"
C        0.07340000      -1.16970000      -0.00480000
C       -0.01880000       0.02960000       0.00300000
C       -0.08470000       1.44090000       0.01170000
N       -1.17190000       2.18730000       0.03050000
C       -0.72110000       3.48580000       0.03170000
C        0.65920000       3.52570000       0.01330000
N        1.05020000       2.22240000       0.00090000
C       -1.59790000       4.60380000       0.04970000
N       -2.28840000       5.53240000       0.06410000
H        0.13510000      -2.23030000      -0.01150000
H        1.35560000       4.34700000       0.00850000
H        1.99740000       1.87960000      -0.01370000
