22
Properties=species:S:1:pos:R:3 gdb_106958=T pbc="F F F"
C       -0.03810000       1.55230000       0.10820000
C        0.00650000       0.03070000       0.01520000
C       -1.38400000      -0.56960000      -0.18700000
C        1.06080000      -0.57820000      -0.99470000
C        1.72530000      -1.30340000       0.18250000
C        2.35900000      -2.65330000       0.18520000
O        3.63750000      -2.56170000      -0.43180000
N        2.17290000      -0.22930000       1.10470000
C        0.76890000      -0.69430000       1.14810000
H        0.95840000       1.95130000       0.31040000
H       -0.40420000       1.98920000      -0.82810000
H       -0.71030000       1.87830000       0.91100000
H       -1.83130000      -0.21220000      -1.12110000
H       -1.34540000      -1.66380000      -0.23030000
H       -2.05600000      -0.29080000       0.63320000
H        0.60080000      -1.25360000      -1.72090000
H        1.70480000       0.13530000      -1.51300000
H        2.44060000      -3.01280000       1.22590000
H        1.70970000      -3.36100000      -0.35480000
H        3.98280000      -3.45350000      -0.53680000
H        2.67010000      -0.67800000       1.87430000
H        0.34590000      -1.10290000       2.06060000
