21
Properties=species:S:1:pos:R:3 gdb_119585=T pbc="F F F"
O       -0.05540000       1.45090000      -0.07610000
C       -0.00200000       0.03630000      -0.19880000
C       -1.37660000      -0.51710000       0.17260000
C       -1.41390000      -2.01920000       0.13180000
C       -1.60670000      -2.80450000      -1.14190000
C       -2.58420000      -3.00400000      -0.01980000
C       -1.97070000      -3.95090000       1.01590000
C       -0.79880000      -2.92340000       1.19710000
O        0.52450000      -3.32660000       0.90580000
H        0.81150000       1.80270000      -0.29750000
H        0.25000000      -0.26900000      -1.22650000
H        0.76230000      -0.39800000       0.46370000
H       -1.63500000      -0.15400000       1.17560000
H       -2.12150000      -0.09860000      -0.51470000
H       -1.96760000      -2.21580000      -1.97990000
H       -0.91510000      -3.59700000      -1.41410000
H       -3.63840000      -2.77590000      -0.12130000
H       -2.56540000      -4.07760000       1.92360000
H       -1.67600000      -4.93560000       0.63800000
H       -0.85230000      -2.44740000       2.18650000
H        0.83160000      -3.89540000       1.61920000
