23
Properties=species:S:1:pos:R:3 gdb_112570=T pbc="F F F"
C       -0.12290000       1.54150000      -0.15080000
C        0.01230000       0.01940000      -0.04730000
C        0.77860000      -0.45980000       1.19770000
C        0.78480000      -2.00180000       1.36440000
C        2.18250000      -2.39430000       1.90250000
C        2.18810000      -2.70100000       3.40630000
O        2.61100000      -3.55230000       1.17410000
C        3.00710000      -1.16330000       1.57560000
C        2.25640000      -0.12920000       1.20700000
H        0.85330000       2.03250000      -0.22220000
H       -0.69830000       1.82690000      -1.03680000
H       -0.63640000       1.95320000       0.72560000
H       -0.98880000      -0.43040000      -0.03150000
H        0.51080000      -0.37360000      -0.94280000
H        0.30310000       0.00900000       2.07390000
H       -0.02590000      -2.36450000       2.00210000
H        0.67480000      -2.47740000       0.38520000
H        1.59250000      -3.59680000       3.60880000
H        3.20900000      -2.87760000       3.76800000
H        1.77610000      -1.86620000       3.98190000
H        3.44050000      -3.85410000       1.55970000
H        4.08830000      -1.15890000       1.67930000
H        2.63490000       0.85750000       0.96060000
