19
Properties=species:S:1:pos:R:3 gdb_103433=T pbc="F F F"
C        0.09840000       1.55950000       0.00800000
C        0.02690000       0.02890000      -0.06590000
C       -1.39300000      -0.51840000       0.01500000
O       -2.20850000      -0.11630000      -1.07080000
C       -1.56070000      -2.03850000       0.15960000
O       -0.97620000      -2.40900000       1.41610000
C       -2.32970000      -1.90930000       1.40410000
C       -2.17760000      -0.38330000       1.40720000
O       -1.53670000       0.17360000       2.52230000
H        1.13650000       1.90100000      -0.03570000
H       -0.42340000       2.03240000      -0.83270000
H       -0.34160000       1.92300000       0.94040000
H        0.47350000      -0.32470000      -1.00360000
H        0.61340000      -0.40910000       0.74780000
H       -2.24520000       0.84600000      -1.07680000
H       -1.60800000      -2.78630000      -0.62300000
H       -3.09190000      -2.54390000       1.84100000
H       -3.11540000       0.15410000       1.24800000
H       -0.82510000      -0.43620000       2.75580000
