14
Properties=species:S:1:pos:R:3 gdb_1705=T pbc="F F F"
N       -0.03570000       1.50890000      -0.00270000
C        0.00330000       0.05240000      -0.01610000
C        0.18100000      -0.54280000       1.41570000
N       -1.27910000      -0.76150000       1.49390000
C       -1.42580000      -0.57300000       0.03490000
C        0.89660000      -0.49720000      -1.04360000
N        1.60960000      -0.89250000      -1.86460000
H        0.89780000       1.88060000       0.15310000
H       -0.33770000       1.85740000      -0.90880000
H        0.79350000      -1.45240000       1.41540000
H        0.57320000       0.16340000       2.15450000
H       -1.55360000      -1.67520000       1.83340000
H       -2.23020000       0.11070000      -0.25470000
H       -1.49780000      -1.49550000      -0.55370000
