20
Properties=species:S:1:pos:R:3 gdb_79819=T pbc="F F F"
C       -0.26780000       1.59130000       0.04310000
C        0.03630000       0.09650000       0.01370000
C        0.58450000      -0.59990000      -1.24490000
C        1.47520000      -1.47460000      -0.42340000
N        2.05030000      -0.55650000      -1.38790000
C        2.78380000       0.51760000      -0.67750000
C        2.45480000       0.37150000       0.82980000
C        1.23240000      -0.55390000       0.80760000
O        0.93210000      -1.21870000       2.00380000
H        0.59120000       2.20720000      -0.23540000
H       -1.07810000       1.82740000      -0.65570000
H       -0.59780000       1.90860000       1.03940000
H       -0.85700000      -0.46130000       0.31860000
H        0.01560000      -0.83350000      -2.13920000
H        1.67670000      -2.53890000      -0.43190000
H        3.85100000       0.37610000      -0.87110000
H        2.50470000       1.49140000      -1.08880000
H        3.26830000      -0.11740000       1.37590000
H        2.24990000       1.33200000       1.31470000
H        0.77240000      -0.55910000       2.68680000
