15
Properties=species:S:1:pos:R:3 gdb_48313=T pbc="F F F"
O       -0.26320000       0.08590000      -0.30260000
C       -0.04950000       1.17090000       0.16940000
C        1.26530000       1.92980000       0.02330000
C        1.58400000       2.57330000       1.29120000
N        1.80940000       3.07290000       2.31000000
C        2.47080000       1.34570000      -0.79790000
C        1.66060000       1.54390000      -2.10510000
C        1.52950000       2.83870000      -1.27220000
N        3.01410000       2.74490000      -1.03870000
H       -0.81990000       1.71370000       0.75760000
H        3.10630000       0.51350000      -0.49860000
H        2.27850000       1.65930000      -2.99380000
H        0.78260000       0.92400000      -2.25800000
H        1.02460000       3.77700000      -1.50230000
H        3.26980000       3.19100000      -0.15260000
