21
Properties=species:S:1:pos:R:3 gdb_57726=T pbc="F F F"
C        0.03810000       1.59140000      -0.00530000
C        0.05310000       0.06010000       0.04480000
C        0.91210000      -0.45200000       1.22160000
C       -1.37890000      -0.54170000       0.09480000
C       -2.19470000      -0.20930000       1.35790000
C       -3.61500000      -0.71590000       1.23060000
O       -4.14470000      -1.48150000       1.99280000
C        0.68460000      -0.49740000      -1.22900000
O        1.09430000       0.15640000      -2.15160000
H        1.04770000       1.97810000      -0.16520000
H       -0.58200000       1.95320000      -0.83020000
H       -0.34200000       2.01480000       0.92880000
H        0.50960000      -0.10620000       2.17750000
H        0.94750000      -1.54670000       1.24790000
H        1.93910000      -0.08180000       1.14190000
H       -1.93180000      -0.19080000      -0.78680000
H       -1.31010000      -1.63350000       0.00180000
H       -1.75740000      -0.64370000       2.25960000
H       -2.24830000       0.88020000       1.48730000
H       -4.16260000      -0.32160000       0.34170000
H        0.74500000      -1.61220000      -1.24710000
