23
Properties=species:S:1:pos:R:3 gdb_117675=T pbc="F F F"
C       -0.16160000       1.57760000       0.28280000
C       -0.02340000       0.06840000       0.06310000
C       -1.37760000      -0.62620000      -0.11470000
C       -1.31740000      -2.17140000      -0.16520000
C       -0.51430000      -2.69520000      -1.35690000
O       -0.69480000      -2.68140000       1.00990000
C       -2.74970000      -2.70270000      -0.23270000
C       -3.11680000      -4.01100000       0.31430000
O       -3.40980000      -2.80100000       1.03610000
H        0.81670000       2.05250000       0.40660000
H       -0.66080000       2.06090000      -0.56480000
H       -0.75290000       1.79510000       1.17940000
H        0.60670000      -0.11080000      -0.81630000
H        0.49430000      -0.38950000       0.91260000
H       -2.03560000      -0.35030000       0.72110000
H       -1.87130000      -0.25750000      -1.02440000
H        0.52590000      -2.36860000      -1.29100000
H       -0.52560000      -3.78830000      -1.36760000
H       -0.93140000      -2.33110000      -2.30110000
H       -1.34900000      -2.58110000       1.71600000
H       -3.36890000      -2.27980000      -1.02480000
H       -3.98780000      -4.53510000      -0.07420000
H       -2.34320000      -4.63100000       0.75960000
