17
Properties=species:S:1:pos:R:3 gdb_123415=T pbc="F F F"
C       -0.07980000       1.57650000      -0.15540000
C       -0.13530000       0.06090000      -0.24720000
C       -0.13470000      -0.76950000       1.01020000
C       -1.38490000      -0.66900000       0.16960000
C        1.31980000       2.08320000      -0.01860000
N        1.73730000       2.72910000       1.03840000
O        3.08600000       2.99710000       0.75100000
C        3.31330000       2.47380000      -0.45240000
N        2.28790000       1.89870000      -0.99120000
H       -0.52190000       2.02020000      -1.05590000
H       -0.65880000       1.92800000       0.70360000
H        0.40680000      -0.34670000      -1.09490000
H        0.41400000      -1.70460000       1.01050000
H       -0.11940000      -0.24630000       1.96080000
H       -2.21040000      -0.08140000       0.55840000
H       -1.69130000      -1.53400000      -0.40790000
H        4.31030000       2.57980000      -0.85470000
