16
Properties=species:S:1:pos:R:3 gdb_46266=T pbc="F F F"
O       -0.10960000       0.03250000      -0.42170000
C       -0.06930000       1.18950000      -0.14060000
C       -1.07020000       2.24190000       0.35910000
O        0.00010000       3.21130000       0.39760000
C        0.99680000       2.29050000      -0.09630000
C        2.33510000       2.24600000       0.71250000
C        3.06710000       2.71560000      -0.55190000
N        2.79030000       1.68590000      -1.57630000
C        1.79470000       2.75680000      -1.32310000
H       -1.86570000       2.50960000      -0.34730000
H       -1.50620000       2.04870000       1.34660000
H        2.28990000       3.00370000       1.49760000
H        2.64340000       1.28040000       1.11870000
H        3.94120000       3.35060000      -0.61690000
H        3.29180000       1.94810000      -2.42490000
H        1.44580000       3.41960000      -2.10460000
