19
Properties=species:S:1:pos:R:3 gdb_53703=T pbc="F F F"
C        0.03610000       1.49240000      -0.02410000
C        0.01980000       0.03750000       0.03430000
C        0.01920000      -1.16530000       0.08460000
C       -0.01530000      -2.62140000       0.14510000
C       -1.43410000      -3.18450000      -0.03750000
N       -1.41180000      -4.64160000       0.04880000
C       -2.73820000      -5.23050000      -0.08750000
C       -2.67370000      -6.69410000      -0.04330000
N       -2.62210000      -7.84780000      -0.03260000
H        0.71700000       1.85250000      -0.80320000
H       -0.95950000       1.89290000      -0.24480000
H        0.36300000       1.92590000       0.92750000
H        0.63980000      -3.04070000      -0.63180000
H        0.38050000      -2.97910000       1.10300000
H       -2.07710000      -2.80430000       0.76490000
H       -1.85750000      -2.81070000      -0.98660000
H       -0.80170000      -5.02180000      -0.66880000
H       -3.36350000      -4.88740000       0.74640000
H       -3.26980000      -4.94240000      -1.01350000
