23
Properties=species:S:1:pos:R:3 gdb_121942=T pbc="F F F"
C       -0.20060000       0.71390000       1.34880000
C       -0.23670000      -0.15860000       0.10550000
O       -1.42600000      -0.92050000       0.12270000
C       -1.56950000      -1.76040000      -0.99810000
C       -2.89200000      -2.52710000      -0.89460000
O       -3.13030000      -3.20770000      -2.12580000
C       -2.94180000      -3.45670000       0.29450000
C       -3.44080000      -2.96830000       1.62930000
C       -4.27280000      -3.93060000       0.82260000
H        0.71250000       1.31650000       1.36630000
H       -1.06200000       1.38760000       1.36950000
H       -0.22730000       0.09650000       2.25120000
H       -0.19680000       0.46290000      -0.80540000
H        0.64160000      -0.82610000       0.07540000
H       -1.57170000      -1.17920000      -1.93390000
H       -0.72970000      -2.47780000      -1.06130000
H       -3.70210000      -1.79270000      -0.80840000
H       -2.59820000      -4.01030000      -2.12440000
H       -2.12320000      -4.17560000       0.32360000
H       -2.94590000      -3.33290000       2.52240000
H       -3.76280000      -1.93530000       1.69300000
H       -5.16550000      -3.55340000       0.33490000
H       -4.35440000      -4.95640000       1.16440000
