18
Properties=species:S:1:pos:R:3 gdb_44946=T pbc="F F F"
N       -0.04460000       1.28490000      -0.09090000
C       -0.01150000       0.02640000      -0.04820000
O        1.10550000      -0.76350000      -0.04290000
C        0.64570000      -2.13210000       0.05090000
C        0.56480000      -2.56810000       1.51480000
C       -0.34410000      -1.60340000       2.30680000
C       -1.59160000      -1.18840000       1.49690000
C       -1.19970000      -0.91750000       0.03590000
O       -0.64060000      -2.11760000      -0.51970000
H        0.89930000       1.67480000      -0.11620000
H        1.30530000      -2.75230000      -0.55920000
H        0.16090000      -3.58670000       1.52130000
H        1.56670000      -2.60750000       1.95380000
H       -0.63860000      -2.05660000       3.25770000
H        0.22960000      -0.70480000       2.55710000
H       -2.33770000      -1.99030000       1.48990000
H       -2.05690000      -0.29950000       1.93350000
H       -2.03670000      -0.59640000      -0.58240000
