18
Properties=species:S:1:pos:R:3 gdb_67567=T pbc="F F F"
C       -0.08950000       1.50930000       0.02000000
C       -0.02980000       0.00770000       0.04000000
C        1.13910000      -0.78430000      -0.64720000
O        2.07090000      -0.39970000       0.40850000
C        0.83580000      -0.75500000       1.11730000
C        0.60170000      -1.98930000       0.20710000
C       -0.87540000      -2.10500000      -0.08580000
C       -1.82990000      -1.46340000       0.85810000
N       -1.28790000      -0.68930000      -0.27430000
H        0.90750000       1.91850000       0.20160000
H       -0.45640000       1.86750000      -0.94630000
H       -0.76940000       1.88150000       0.79350000
H        1.49000000      -0.75830000      -1.67950000
H        0.84880000      -0.68060000       2.20490000
H        1.22510000      -2.87200000       0.33380000
H       -1.22650000      -2.82220000      -0.82210000
H       -2.88850000      -1.69150000       0.77530000
H       -1.49830000      -1.22230000       1.86460000
