19
Properties=species:S:1:pos:R:3 gdb_95730=T pbc="F F F"
O       -0.16260000       1.48660000      -0.11620000
C        0.00140000       0.08270000       0.02480000
C       -1.42470000      -0.48920000       0.07070000
N       -1.55750000      -1.92780000       0.20960000
C       -1.05000000      -2.75450000      -0.87720000
C        0.46980000      -2.97340000      -0.93780000
O        0.95870000      -4.08860000      -0.91730000
N        1.25540000      -1.85190000      -0.98450000
C        0.83090000      -0.47170000      -1.14750000
H        0.69640000       1.90940000      -0.01800000
H        0.52200000      -0.16850000       0.96380000
H       -1.95390000      -0.00580000       0.89830000
H       -1.93580000      -0.17990000      -0.85090000
H       -1.20140000      -2.24940000       1.10240000
H       -1.47820000      -3.75750000      -0.80460000
H       -1.39420000      -2.31860000      -1.82470000
H        2.24240000      -2.05650000      -1.02420000
H        0.26730000      -0.32530000      -2.07980000
H        1.74110000       0.12960000      -1.23930000
