17
Properties=species:S:1:pos:R:3 gdb_41181=T pbc="F F F"
C        0.03500000       1.56500000      -0.18430000
N        1.55140000       1.51670000       0.11270000
C        1.19310000       0.27660000       0.93810000
C        1.22600000      -1.28110000       1.17660000
C       -0.37670000      -1.12170000       1.10370000
C       -0.02610000       0.03620000       0.10710000
N        0.32680000      -0.62980000      -1.17400000
C        1.13910000      -1.59490000      -1.08490000
O        1.69260000      -2.03990000       0.06880000
H       -0.45010000       2.19870000       0.56110000
H       -0.22340000       1.87700000      -1.19840000
H        1.99630000       1.21930000      -0.75480000
H        0.91800000       0.68300000       1.91640000
H        1.69920000      -1.69970000       2.06440000
H       -0.93010000      -1.98330000       0.72250000
H       -0.77850000      -0.79060000       2.06120000
H        1.46660000      -2.17540000      -1.94330000
