18
Properties=species:S:1:pos:R:3 gdb_41312=T pbc="F F F"
C        0.06590000       1.51400000      -0.24500000
O        1.45930000       1.55210000       0.22740000
C        1.26070000       0.25380000       0.82180000
C        0.48320000       0.09860000       2.15240000
C       -0.38780000      -0.85980000       1.28300000
C        0.65750000      -1.99090000       1.01780000
C        1.63030000      -1.12510000       0.16670000
N        0.71040000      -0.85920000      -0.99720000
C       -0.00290000       0.00040000       0.01450000
H       -0.58570000       2.13530000       0.37900000
H       -0.01770000       1.83290000      -1.28900000
H        0.97280000      -0.32120000       3.03410000
H       -0.01460000       1.03340000       2.41630000
H       -1.39710000      -1.16230000       1.55890000
H        1.08420000      -2.37250000       1.94840000
H        0.27600000      -2.81450000       0.41340000
H        2.63160000      -1.51200000      -0.02720000
H        1.18160000      -0.22150000      -1.63780000
