22
Properties=species:S:1:pos:R:3 gdb_113390=T pbc="F F F"
C        0.42850000       1.56570000       0.00220000
C       -0.17050000       0.16460000      -0.10280000
N        0.47740000      -0.56980000      -1.18660000
C        1.62150000      -1.41610000      -0.86190000
C        0.33720000      -2.02310000      -1.31710000
C       -0.46070000      -2.87680000      -0.33760000
O        0.12330000      -4.15020000      -0.13650000
C        0.19810000      -2.45080000      -2.76430000
O        0.60390000      -3.81980000      -2.87630000
H        1.49460000       1.51480000       0.24650000
H        0.32500000       2.10030000      -0.94600000
H       -0.07170000       2.14150000       0.78700000
H       -0.08170000      -0.34060000       0.87220000
H       -1.24040000       0.23200000      -0.33440000
H        2.47540000      -1.35410000      -1.53210000
H        1.87540000      -1.55050000       0.18910000
H       -0.50860000      -2.40050000       0.64480000
H       -1.49840000      -2.96640000      -0.70470000
H        0.32320000      -4.49140000      -1.01880000
H       -0.85120000      -2.33470000      -3.07650000
H        0.81380000      -1.80070000      -3.39890000
H        0.30790000      -4.16080000      -3.72490000
