21
Properties=species:S:1:pos:R:3 gdb_87257=T pbc="F F F"
C        0.04610000       1.40010000      -0.34100000
C       -0.00460000      -0.01790000       0.16700000
O        1.21960000      -0.76770000       0.17110000
C        0.57740000      -0.50980000       1.43320000
C        1.32890000       0.40180000       2.37970000
C       -0.02530000      -1.75840000       2.06420000
C        1.04590000      -2.78860000       2.47480000
C        0.42470000      -4.10860000       2.86450000
O        0.58030000      -4.66380000       3.92130000
H        0.89570000       1.95470000       0.06050000
H        0.12980000       1.40100000      -1.43290000
H       -0.87530000       1.93070000      -0.07720000
H       -0.85430000      -0.58780000      -0.21780000
H        1.78770000       1.23890000       1.85270000
H        0.65560000       0.79830000       3.14740000
H        2.12860000      -0.14520000       2.88880000
H       -0.62730000      -1.47700000       2.93670000
H       -0.70540000      -2.22460000       1.34220000
H        1.69210000      -2.96440000       1.60340000
H        1.66490000      -2.44020000       3.30520000
H       -0.22420000      -4.55650000       2.07400000
