23
Properties=species:S:1:pos:R:3 gdb_58198=T pbc="F F F"
C       -0.08450000       1.55430000       0.14150000
C       -0.07450000       0.02510000      -0.00350000
C       -1.50660000      -0.52720000      -0.04840000
C        0.70770000      -0.45620000      -1.24920000
O        0.09270000      -0.00610000      -2.44990000
C        2.22220000      -0.10540000      -1.24140000
C        2.96390000      -0.63640000       0.00370000
C        2.86350000      -0.60190000      -2.45900000
C        3.41920000      -1.03110000      -3.43460000
H        0.92050000       1.97320000       0.25640000
H       -0.55420000       2.03000000      -0.72720000
H       -0.66310000       1.85140000       1.02140000
H        0.41980000      -0.39980000       0.87870000
H       -2.02560000      -0.17320000      -0.94340000
H       -1.50810000      -1.62210000      -0.07390000
H       -2.07600000      -0.21050000       0.83120000
H        0.62840000      -1.54950000      -1.29430000
H        0.31130000       0.92370000      -2.57160000
H        2.30830000       0.99170000      -1.24270000
H        4.03550000      -0.44430000      -0.08680000
H        2.60650000      -0.15390000       0.91660000
H        2.82410000      -1.71720000       0.10390000
H        3.89560000      -1.40230000      -4.30780000
