18
Properties=species:S:1:pos:R:3 gdb_40806=T pbc="F F F"
C        0.27410000       1.52680000       0.02950000
O        1.17110000       0.44200000      -0.21310000
C       -0.20350000       0.13710000       0.02770000
C       -0.51470000      -0.61910000       1.29660000
C       -1.99760000      -0.51280000       1.65540000
O       -2.31070000      -1.28040000       2.82380000
C       -1.63950000      -2.45180000       2.96250000
N       -0.68870000      -2.92130000       2.27630000
C       -0.15780000      -2.11060000       1.18440000
H        0.41450000       2.04440000       0.97770000
H        0.07460000       2.17050000      -0.82590000
H       -0.73640000      -0.21180000      -0.86060000
H        0.07100000      -0.17860000       2.11250000
H       -2.29270000       0.51430000       1.88420000
H       -2.62110000      -0.87230000       0.82510000
H       -2.03900000      -3.00110000       3.81310000
H       -0.52870000      -2.51810000       0.23280000
H        0.92950000      -2.23320000       1.16330000
