25
Properties=species:S:1:pos:R:3 gdb_123220=T pbc="F F F"
C        0.03080000       1.62770000      -0.07490000
C        0.02350000       0.09710000      -0.03690000
C       -1.38780000      -0.49860000       0.00810000
C       -1.40370000      -2.03040000       0.04620000
C       -2.81590000      -2.62360000       0.09290000
C       -2.82780000      -4.15580000       0.12990000
C       -4.24880000      -4.74400000       0.18900000
C       -4.23750000      -6.25270000       0.11460000
O       -4.72310000      -6.99320000       0.93040000
H        1.05100000       2.02280000      -0.10340000
H       -0.49680000       2.00450000      -0.95830000
H       -0.46430000       2.04770000       0.80780000
H        0.55320000      -0.29440000      -0.91550000
H        0.59040000      -0.25070000       0.83690000
H       -1.91850000      -0.10750000       0.88750000
H       -1.95650000      -0.15050000      -0.86580000
H       -0.87420000      -2.42170000      -0.83380000
H       -0.83500000      -2.37810000       0.91980000
H       -3.34580000      -2.23570000       0.97330000
H       -3.38700000      -2.27890000      -0.78030000
H       -2.30850000      -4.54640000      -0.75590000
H       -2.25630000      -4.50640000       0.99890000
H       -4.77320000      -4.44170000       1.10030000
H       -4.82430000      -4.37560000      -0.67340000
H       -3.71680000      -6.65890000      -0.78600000
