16
Properties=species:S:1:pos:R:3 gdb_112477=T pbc="F F F"
O        0.08580000       1.43950000       0.08050000
C        0.09220000       0.03460000       0.17640000
C       -1.31730000      -0.55280000       0.02090000
O       -1.84190000      -0.08400000      -1.25740000
C       -1.74760000      -0.81130000      -2.39620000
O       -1.94180000      -0.31130000      -3.47250000
N       -1.45700000      -2.15170000      -2.22590000
C       -1.40440000      -2.77140000      -0.97910000
C       -1.36300000      -2.04390000       0.13440000
H       -0.36680000       1.65930000      -0.74270000
H        0.75490000      -0.43290000      -0.57020000
H        0.47850000      -0.22140000       1.16890000
H       -1.96880000      -0.07080000       0.75730000
H       -1.50030000      -2.69570000      -3.07150000
H       -1.41640000      -3.85420000      -0.99720000
H       -1.34210000      -2.50370000       1.11270000
