17
Properties=species:S:1:pos:R:3 gdb_3290=T pbc="F F F"
C        0.20880000       1.52290000      -0.14700000
C        0.04680000       0.03560000       0.08760000
O        0.83500000      -0.77590000      -0.82710000
C        1.33710000      -1.59170000       0.25130000
C        2.74230000      -1.15620000       0.72100000
C        2.07960000      -0.19540000       1.75970000
C        0.66900000      -0.67250000       1.31260000
H        1.25350000       1.83430000      -0.06530000
H       -0.14120000       1.78060000      -1.15170000
H       -0.38600000       2.09160000       0.57620000
H       -1.01580000      -0.23380000      -0.01140000
H        1.12740000      -2.65490000       0.10300000
H        3.32410000      -1.96000000       1.18090000
H        3.33860000      -0.69040000      -0.06650000
H        2.30380000      -0.46180000       2.79500000
H        2.28810000       0.87000000       1.63760000
H       -0.01690000      -1.01190000       2.08810000
