15
Properties=species:S:1:pos:R:3 gdb_71025=T pbc="F F F"
O       -0.01000000       1.36200000      -0.00430000
C        0.02550000      -0.01130000       0.02740000
C        0.69810000      -0.96280000       1.12450000
C       -0.03020000      -1.88950000       0.13550000
N       -0.46620000      -3.21530000      -0.36110000
C       -1.12390000      -2.80080000      -1.37790000
N       -1.13450000      -1.31050000      -1.56170000
C       -1.20960000      -0.91550000      -0.07080000
C        0.31200000      -1.03320000      -1.10160000
H        0.88490000       1.69600000      -0.12990000
H        1.79090000      -1.00110000       1.13680000
H        0.29260000      -0.88830000       2.13630000
H       -1.64900000      -3.43740000      -2.08070000
H       -2.14860000      -0.87350000       0.48210000
H        1.17010000      -1.13500000      -1.76830000
