19
Properties=species:S:1:pos:R:3 gdb_23342=T pbc="F F F"
C       -0.04380000       1.57810000       0.01550000
C        0.03140000       0.05890000      -0.11840000
N       -1.30650000      -0.53120000       0.02210000
C       -1.86060000      -0.72050000       1.44160000
C       -2.79810000      -1.78760000       0.80620000
C       -1.38410000      -2.04760000       0.21200000
C       -0.84310000      -1.84570000       1.61710000
N        0.07330000      -2.31280000       2.34520000
O        0.16770000      -1.59540000       3.56590000
H        0.93520000       2.02850000      -0.17290000
H       -0.76250000       1.99400000      -0.69630000
H       -0.35530000       1.87160000       1.02350000
H        0.38180000      -0.20810000      -1.12280000
H        0.76260000      -0.34960000       0.59690000
H       -2.10860000       0.11330000       2.09350000
H       -3.20890000      -2.54920000       1.46940000
H       -3.51570000      -1.38220000       0.09170000
H       -1.07740000      -2.74760000      -0.56310000
H        0.88050000      -2.06440000       4.01230000
