18
Properties=species:S:1:pos:R:3 gdb_64110=T pbc="F F F"
C        0.06110000       1.46210000       0.07920000
C       -0.05110000      -0.06810000      -0.01760000
C       -1.51430000      -0.50870000      -0.06440000
C        0.78140000      -0.61950000      -1.22230000
N        2.03310000      -1.01130000      -0.56400000
C        1.71870000      -1.13310000       0.78190000
N        0.60900000      -0.64350000       1.18500000
C        2.66980000      -1.75840000       1.66320000
N        3.44970000      -2.28150000       2.33650000
H        1.10910000       1.77670000       0.07670000
H       -0.44440000       1.93730000      -0.76820000
H       -0.39960000       1.81650000       1.00470000
H       -2.00690000      -0.11630000      -0.96070000
H       -1.59270000      -1.59960000      -0.07660000
H       -2.05090000      -0.13960000       0.81360000
H        0.28910000      -1.48330000      -1.68950000
H        0.95910000       0.13720000      -1.99100000
H        2.61820000      -1.71680000      -0.98770000
