21
Properties=species:S:1:pos:R:3 gdb_63988=T pbc="F F F"
C        0.30550000       1.49130000      -0.20150000
C        0.03550000       0.00270000      -0.03140000
O       -1.35800000      -0.24950000       0.10230000
C        0.74010000      -0.93680000      -1.06280000
C        1.45980000      -1.68620000       0.09090000
C        2.94740000      -1.36850000       0.27640000
O        3.00030000      -0.08020000       0.88400000
C        1.92610000      -0.04310000       1.82020000
C        0.75820000      -0.74750000       1.13200000
H        1.37800000       1.69660000      -0.25020000
H       -0.14570000       1.84870000      -1.13620000
H       -0.13080000       2.06230000       0.62440000
H       -1.80090000       0.13380000      -0.66310000
H        0.02720000      -1.55040000      -1.61810000
H        1.40880000      -0.43370000      -1.76820000
H        1.24990000      -2.75420000       0.15770000
H        3.42020000      -2.11870000       0.93170000
H        3.51320000      -1.31880000      -0.65860000
H        2.19950000      -0.58310000       2.74190000
H        1.74340000       1.00350000       2.07650000
H        0.05100000      -1.20180000       1.82590000
