17
Properties=species:S:1:pos:R:3 gdb_19055=T pbc="F F F"
O       -0.02970000       1.46640000      -0.00580000
C        0.02150000       0.04270000       0.02980000
C        0.65900000      -0.53980000       1.31960000
C       -0.55350000      -0.90460000       2.16620000
C       -1.48130000       0.30640000       2.45680000
C       -2.26900000      -0.14640000       1.23750000
C       -1.39600000      -0.50310000       0.09030000
N       -1.57530000      -1.49120000       1.18180000
H        0.86530000       1.79020000      -0.14870000
H        0.53460000      -0.33210000      -0.86630000
H        1.23600000      -1.44060000       1.08340000
H        1.32560000       0.18100000       1.80380000
H       -0.35010000      -1.57540000       3.00050000
H       -2.05400000       0.16460000       3.37600000
H       -1.04500000       1.30740000       2.44010000
H       -3.34430000      -0.06030000       1.11200000
H       -1.89250000      -0.77060000      -0.83660000
