17
Properties=species:S:1:pos:R:3 gdb_54104=T pbc="F F F"
N        0.30100000       0.75150000       1.15600000
C        0.11660000       0.03320000       0.01770000
O        0.91460000       0.01780000      -0.90320000
C       -1.19240000      -0.76770000       0.02120000
N       -2.22510000      -0.04450000       0.73620000
C       -1.57670000      -1.60550000      -1.25200000
C       -0.43450000      -2.60380000      -0.97110000
C       -1.16520000      -2.30050000       0.35210000
O       -2.45610000      -2.42950000      -0.36970000
H        1.11410000       1.34030000       1.22810000
H       -0.44760000       0.81220000       1.82730000
H       -2.45680000       0.81690000       0.24850000
H       -3.05910000      -0.62690000       0.73640000
H       -1.99530000      -1.26450000      -2.19900000
H       -0.62700000      -3.60840000      -1.34660000
H        0.58800000      -2.26150000      -1.10690000
H       -1.08960000      -2.77540000       1.33150000
