18
Properties=species:S:1:pos:R:3 gdb_55188=T pbc="F F F"
O        0.27360000       0.31100000      -0.73800000
C       -0.01140000       1.15780000       0.06950000
O        0.80430000       1.48230000       1.08130000
C       -1.34630000       1.89550000       0.04160000
C       -2.42240000       1.47760000       1.10910000
C       -2.69110000       2.97540000       1.43840000
C       -1.90260000       3.52880000       2.64240000
N       -0.67010000       3.60260000       1.79770000
H       -0.19220000       4.49550000       1.82210000
H        0.40620000       2.25050000       1.57470000
C       -1.46700000       3.35830000       0.55070000
H       -1.74860000       1.80190000      -0.96770000
H       -3.26930000       0.92950000       0.69440000
H       -2.02130000       0.90700000       1.95100000
H       -3.70050000       3.34700000       1.27320000
H       -2.25720000       4.51410000       2.96470000
H       -1.80110000       2.88230000       3.52030000
H       -1.44620000       4.16900000      -0.17970000
