22
Properties=species:S:1:pos:R:3 gdb_9549=T pbc="F F F"
C        0.07740000       1.53680000      -0.05600000
C       -0.03960000       0.01800000       0.11790000
C       -1.47750000      -0.53010000       0.05420000
C       -2.37860000       0.08480000       1.12250000
C       -2.04360000      -0.54590000      -1.40630000
C       -1.59800000      -2.02610000      -1.55000000
C       -1.49110000      -2.09030000      -0.00530000
O       -0.37780000      -2.71950000       0.58880000
H        1.12920000       1.83830000      -0.08400000
H       -0.38600000       1.87670000      -0.98880000
H       -0.39590000       2.08200000       0.76620000
H        0.56670000      -0.47790000      -0.64830000
H        0.40190000      -0.27760000       1.07630000
H       -2.50930000       1.16160000       0.97460000
H       -3.37490000      -0.37020000       1.10160000
H       -1.96230000      -0.06630000       2.12560000
H       -3.13140000      -0.43400000      -1.42630000
H       -1.61230000       0.17010000      -2.10960000
H       -2.28350000      -2.72140000      -2.04110000
H       -0.61150000      -2.11710000      -2.01180000
H       -2.42870000      -2.46970000       0.42900000
H       -0.47020000      -3.67000000       0.47170000
