21
Properties=species:S:1:pos:R:3 gdb_107830=T pbc="F F F"
O       -0.08410000       1.41040000       0.17980000
C       -0.01630000       0.00630000      -0.03820000
C       -1.42460000      -0.53700000      -0.03590000
C       -2.17950000      -0.51320000       1.33960000
C       -2.57560000      -1.96980000       1.10410000
C       -3.08510000      -2.16480000      -0.31610000
C       -3.58220000      -0.94550000      -1.09390000
C       -2.34450000      -0.00940000      -1.15000000
C       -1.60700000      -2.08590000      -0.06100000
H        0.81300000       1.75600000       0.19730000
H        0.46530000      -0.22270000      -1.00430000
H        0.57470000      -0.48930000       0.74910000
H       -1.47900000      -0.41360000       2.17310000
H       -2.97580000       0.22980000       1.45890000
H       -2.79350000      -2.70160000       1.87400000
H       -3.52060000      -3.13800000      -0.51590000
H       -3.91920000      -1.22860000      -2.09580000
H       -4.43410000      -0.46770000      -0.59750000
H       -2.59340000       1.04550000      -1.00880000
H       -1.83820000      -0.10340000      -2.11880000
H       -0.86950000      -2.84080000      -0.30300000
