17
Properties=species:S:1:pos:R:3 gdb_44613=T pbc="F F F"
O       -0.03300000       0.03200000       0.21030000
C        0.00140000       1.20590000      -0.00710000
O       -1.13650000       1.95460000      -0.17260000
C       -0.79550000       3.27870000      -0.54180000
C       -0.03940000       4.14660000       0.43860000
C        0.37880000       3.54130000       1.78140000
C        1.51250000       2.54560000       1.42840000
C        1.21700000       2.14220000      -0.04150000
C        0.68620000       3.42310000      -0.68910000
H       -1.51900000       3.70630000      -1.22390000
H       -0.22340000       5.21300000       0.37010000
H        0.72030000       4.31770000       2.46990000
H       -0.46130000       3.02910000       2.26200000
H        2.48240000       3.05200000       1.46010000
H        1.55840000       1.68170000       2.09690000
H        2.05920000       1.66370000      -0.53980000
H        1.17260000       3.90190000      -1.52840000
