13
Properties=species:S:1:pos:R:3 gdb_10799=T pbc="F F F"
O       -0.01580000      -0.10420000      -0.06140000
C        0.00860000       1.10610000       0.01440000
C       -1.25370000       1.92170000       0.27450000
O       -1.24890000       3.25040000      -0.26730000
C       -0.12610000       3.99660000      -0.21850000
O       -0.15090000       5.16020000      -0.50130000
C        1.15120000       3.28170000       0.21140000
N        1.12900000       1.86700000      -0.10760000
H       -2.09510000       1.40520000      -0.18600000
H       -1.43180000       1.96880000       1.35710000
H        1.97570000       3.77050000      -0.30930000
H        1.29240000       3.46750000       1.28800000
H        2.00060000       1.36830000      -0.21410000
