19
Properties=species:S:1:pos:R:3 gdb_99383=T pbc="F F F"
C       -0.02380000       1.13840000       0.71710000
N       -0.02720000      -0.12110000      -0.00530000
C       -1.18850000      -0.85550000      -0.10770000
O       -2.20940000      -0.59340000       0.50790000
N       -1.10020000      -1.93190000      -0.97750000
C       -2.19220000      -2.88960000      -1.01630000
C       -2.24410000      -3.82850000       0.20980000
C       -3.46670000      -4.71300000       0.17940000
O       -3.44910000      -5.91730000       0.15070000
H       -0.26020000       1.99660000       0.07430000
H       -0.78420000       1.07760000       1.49570000
H        0.95440000       1.30260000       1.17780000
H        0.64650000      -0.22100000      -0.74820000
H       -0.17850000      -2.30310000      -1.15310000
H       -3.12160000      -2.31790000      -1.07480000
H       -2.09690000      -3.47340000      -1.93700000
H       -1.35170000      -4.45850000       0.26970000
H       -2.30410000      -3.19270000       1.10190000
H       -4.43300000      -4.15600000       0.17550000
