17
Properties=species:S:1:pos:R:3 gdb_66608=T pbc="F F F"
O       -0.11650000       1.41610000      -0.00860000
C        0.01550000       0.05220000      -0.00600000
C        0.05170000      -0.99570000       1.07400000
C       -1.04550000      -0.99480000      -0.02030000
C       -0.39930000      -1.78320000      -1.20840000
C       -0.05800000      -3.20960000      -0.86480000
C        0.89460000      -3.20540000       0.07700000
C        1.23540000      -1.77580000       0.41120000
C        0.88200000      -0.95370000      -0.87030000
H        0.66390000       1.79990000       0.40750000
H       -0.21130000      -0.92720000       2.12160000
H       -2.09120000      -0.90880000       0.24370000
H       -0.87220000      -1.58900000      -2.17110000
H       -0.58470000      -4.07690000      -1.24540000
H        1.28620000      -4.06840000       0.60270000
H        2.20440000      -1.58110000       0.87240000
H        1.62950000      -0.72250000      -1.62800000
