18
Properties=species:S:1:pos:R:3 gdb_48252=T pbc="F F F"
O        0.27530000      -0.04210000       0.42560000
C        0.17590000       1.10120000       0.07110000
C        1.35410000       2.05090000      -0.10450000
C        1.21130000       2.90330000      -1.38680000
C        1.24350000       2.11140000      -2.61470000
N        1.27080000       1.47210000      -3.57680000
C        1.42990000       2.95220000       1.12050000
C        2.05920000       2.44280000       2.39030000
C        2.76330000       3.49770000       1.57500000
H       -0.82200000       1.56670000      -0.11350000
H        2.25800000       1.43690000      -0.16230000
H        0.27000000       3.46650000      -1.35900000
H        2.01790000       3.64280000      -1.41920000
H        0.57500000       3.61460000       1.23800000
H        1.61110000       2.73190000       3.33390000
H        2.46400000       1.43670000       2.37980000
H        3.64700000       3.20160000       1.01910000
H        2.79760000       4.51140000       1.95770000
