18
Properties=species:S:1:pos:R:3 gdb_52304=T pbc="F F F"
O       -0.24200000       0.04700000      -0.05580000
C       -0.02760000       1.23030000       0.00190000
C        1.33150000       1.87680000      -0.11460000
C        1.37420000       2.92160000      -1.24150000
C        2.67950000       3.72630000      -1.24970000
C        2.74770000       4.79610000      -2.37500000
O        2.94210000       6.04610000      -1.66820000
C        2.95620000       5.71540000      -0.35720000
N        2.83310000       4.50580000      -0.00290000
H       -0.86420000       1.95510000       0.14950000
H        1.54740000       2.38950000       0.83220000
H        2.08180000       1.09430000      -0.26160000
H        1.25400000       2.42720000      -2.21360000
H        0.53440000       3.62090000      -1.13340000
H        3.52150000       3.02740000      -1.32290000
H        3.58680000       4.65950000      -3.06120000
H        1.82150000       4.87300000      -2.95330000
H        3.07970000       6.55870000       0.31360000
