12
Properties=species:S:1:pos:R:3 gdb_4593=T pbc="F F F"
O        0.03720000       1.33650000      -0.11190000
C        0.05600000      -0.01300000      -0.05320000
C        0.05880000      -0.75570000      -1.23640000
N        0.07710000      -2.08640000      -1.20540000
C        0.09240000      -2.67140000      -0.01300000
O        0.11110000      -4.02090000       0.04560000
C        0.08960000      -1.92870000       1.17010000
N        0.07130000      -0.59800000       1.13920000
H        0.03850000       1.64910000       0.80280000
H        0.04620000      -0.26470000      -2.20410000
H        0.10990000      -4.33350000      -0.86910000
H        0.10220000      -2.41970000       2.13780000
