18
Properties=species:S:1:pos:R:3 gdb_62150=T pbc="F F F"
O        1.20560000       1.60210000       0.49540000
C        0.52840000       0.55240000      -0.17050000
C        1.33380000       0.14300000      -1.41190000
O        0.66120000      -0.85180000      -2.17750000
C       -0.09770000      -0.43140000      -3.21200000
N       -0.82170000      -1.25300000      -3.83640000
C        0.24350000      -0.65840000       0.73780000
C       -0.56950000      -0.32900000       1.90000000
C       -1.24260000      -0.05090000       2.85560000
H        1.89510000       1.21990000       1.04920000
H       -0.42800000       0.97810000      -0.49650000
H        1.53850000       1.03630000      -2.01400000
H        2.29390000      -0.29240000      -1.11260000
H        0.01310000       0.64180000      -3.42390000
H       -1.30460000      -0.78240000      -4.59870000
H       -0.24360000      -1.43330000       0.13500000
H        1.20390000      -1.08830000       1.06190000
H       -1.83930000       0.19100000       3.69970000
