16
Properties=species:S:1:pos:R:3 gdb_124934=T pbc="F F F"
C        0.09670000       1.52140000       0.03410000
C       -0.04700000       0.03200000       0.04370000
C       -1.20600000      -0.67010000      -0.03100000
C       -2.56920000      -0.03820000      -0.13840000
C       -1.11650000      -2.12320000      -0.00500000
O       -2.06540000      -2.89370000      -0.06350000
C        0.26780000      -2.62050000       0.10210000
N        1.33990000      -1.91670000       0.17050000
O        1.17820000      -0.54250000       0.14030000
H        0.72140000       1.83520000      -0.80850000
H       -0.87400000       2.00940000      -0.04330000
H        0.59320000       1.85890000       0.94970000
H       -2.66880000       0.57400000      -1.04060000
H       -3.31210000      -0.83660000      -0.18150000
H       -2.79670000       0.59790000       0.72320000
H        0.42550000      -3.69550000       0.12800000
