21
Properties=species:S:1:pos:R:3 gdb_103777=T pbc="F F F"
C       -0.32950000       1.53340000       0.12680000
C        0.15590000       0.09260000      -0.07160000
C        0.82300000      -0.48620000       1.16130000
O        1.98560000       0.18840000       1.57450000
C       -0.01180000      -1.14560000       2.24330000
C        0.89640000      -1.96350000       1.36440000
C        0.57950000      -3.09890000       0.39740000
O        1.78960000      -3.78700000       0.77850000
C        2.12870000      -2.76990000       1.75210000
H        0.50700000       2.20100000       0.35950000
H       -0.80790000       1.91600000      -0.77920000
H       -1.05590000       1.59960000       0.94430000
H       -0.68940000      -0.54600000      -0.35330000
H        0.86990000       0.05700000      -0.90380000
H        1.72010000       1.01140000       1.99830000
H        0.29870000      -0.99820000       3.27330000
H       -1.08510000      -1.22830000       2.09640000
H       -0.31900000      -3.68570000       0.63320000
H        0.56940000      -2.84250000      -0.67040000
H        3.09200000      -2.29320000       1.53950000
H        2.13730000      -3.17000000       2.77450000
