18
Properties=species:S:1:pos:R:3 gdb_33458=T pbc="F F F"
C       -0.20690000      -1.22380000       0.49500000
C       -0.11920000      -0.04180000       0.28810000
C       -0.03620000       1.36850000      -0.00250000
C        0.73890000       2.22260000       0.95030000
N        1.29080000       1.91740000      -0.37330000
C       -1.22260000       1.92170000      -0.76860000
C       -1.15150000       3.36130000      -1.32590000
O       -1.43230000       2.90120000      -2.66340000
C       -1.35860000       1.52110000      -2.25600000
H       -0.28020000      -2.26560000       0.68810000
H        0.43910000       3.25780000       1.09210000
H        1.16610000       1.74320000       1.82560000
H        1.99380000       1.18660000      -0.30200000
H       -2.13300000       1.73020000      -0.19580000
H       -1.91530000       4.05860000      -0.96270000
H       -0.16080000       3.82440000      -1.25690000
H       -0.47430000       1.01770000      -2.66750000
H       -2.25730000       0.95920000      -2.53370000
