14
Properties=species:S:1:pos:R:3 gdb_116839=T pbc="F F F"
C        0.01130000       1.38370000       0.00860000
O        0.06260000      -0.02880000       0.00100000
C       -1.21960000      -0.60530000       0.01100000
C       -1.11820000      -2.05650000       0.00250000
C       -1.06850000      -3.26240000      -0.00450000
C       -1.01350000      -4.69370000      -0.01310000
O       -1.97650000      -5.42600000      -0.00810000
C        0.35460000      -5.24540000      -0.02950000
N        1.42100000      -5.69190000      -0.04250000
H        1.04330000       1.73830000       0.00000000
H       -0.51130000       1.77580000      -0.87730000
H       -0.49340000       1.76700000       0.90850000
H       -1.79410000      -0.29600000       0.90270000
H       -1.81210000      -0.28670000      -0.86550000
