15
Properties=species:S:1:pos:R:3 gdb_125833=T pbc="F F F"
C        0.31270000       1.45860000       0.07540000
C        0.08830000      -0.01600000       0.06220000
N       -0.07380000      -0.69450000      -1.04180000
O       -0.25440000      -1.99810000      -0.66570000
N       -0.20200000      -2.13120000       0.69140000
C        0.00620000      -0.93250000       1.16040000
C        0.11150000      -0.67170000       2.63780000
C        1.38120000      -0.05750000       3.02010000
C        2.42490000       0.45220000       3.32630000
H        1.24150000       1.70150000       0.59940000
H        0.36400000       1.83900000      -0.94590000
H       -0.50080000       1.97300000       0.59840000
H       -0.71630000      -0.02230000       2.95290000
H       -0.02230000      -1.62400000       3.16130000
H        3.34980000       0.89220000       3.60760000
