18
Properties=species:S:1:pos:R:3 gdb_76138=T pbc="F F F"
C       -0.21370000       1.52410000      -0.01620000
C        0.03600000       0.03780000      -0.03030000
O       -1.01900000      -0.73700000      -0.52910000
C        1.37260000      -0.53650000      -0.33780000
O        2.47800000       0.24420000      -0.60440000
C        0.83720000      -0.66780000       1.10600000
C        1.53150000       0.09480000       2.16770000
N        1.38380000      -0.37310000       3.43690000
O        2.21460000       1.09660000       1.94070000
H        0.64360000       2.07300000       0.37170000
H       -0.42450000       1.86380000      -1.03470000
H       -1.08090000       1.76420000       0.61160000
H       -1.80030000      -0.55600000       0.00660000
H        1.36430000      -1.45750000      -0.91420000
H        2.64140000       0.78600000       0.19220000
H        0.43780000      -1.63880000       1.37890000
H        0.89650000      -1.22770000       3.63930000
H        1.91210000       0.07230000       4.16940000
