18
Properties=species:S:1:pos:R:3 gdb_119800=T pbc="F F F"
C       -0.55730000       0.45600000      -0.07230000
O        0.13430000       0.22910000      -1.28660000
C        1.31390000      -0.53670000      -1.12990000
C        1.02320000      -2.00120000      -0.96380000
N        0.91990000      -2.63560000       0.14030000
C        0.53620000      -3.98440000      -0.19830000
C       -0.79200000      -4.13710000      -0.91530000
C        0.46680000      -4.01140000      -1.71860000
O        0.82550000      -2.70040000      -2.12070000
H       -0.86150000      -0.47980000       0.41380000
H        0.06080000       1.02660000       0.63770000
H       -1.44580000       1.04050000      -0.32170000
H        1.90030000      -0.38850000      -2.04080000
H        1.89700000      -0.20320000      -0.26120000
H        0.91690000      -4.77850000       0.43200000
H       -1.24430000      -5.12250000      -0.89460000
H       -1.48760000      -3.30460000      -0.89500000
H        0.82870000      -4.77770000      -2.39120000
