21
Properties=species:S:1:pos:R:3 gdb_85919=T pbc="F F F"
C        0.04390000       1.51020000       0.04930000
C       -0.01830000      -0.02100000       0.00200000
C       -1.48470000      -0.46580000      -0.15540000
C        0.85470000      -0.58490000      -1.16190000
C        1.22260000      -2.00650000      -0.72730000
O        2.33940000      -2.56350000      -1.36410000
C        1.44460000      -1.83830000       0.77490000
O        2.24480000      -2.49550000       1.39550000
C        0.61190000      -0.66490000       1.27300000
H        1.07350000       1.86170000       0.17440000
H       -0.34790000       1.94680000      -0.87620000
H       -0.55090000       1.90500000       0.88050000
H       -1.91300000      -0.07370000      -1.08390000
H       -1.58850000      -1.55560000      -0.17640000
H       -2.09250000      -0.09370000       0.67660000
H        0.33790000      -0.54760000      -2.12430000
H        1.78240000      -0.00840000      -1.25800000
H        0.34030000      -2.66250000      -0.84750000
H        2.84330000      -3.00460000      -0.66330000
H        1.28490000       0.02350000       1.79680000
H       -0.12830000      -0.99520000       2.00910000
