21
Properties=species:S:1:pos:R:3 gdb_115955=T pbc="F F F"
C       -0.02170000       1.35160000      -0.17800000
O       -0.06280000       0.01310000       0.26050000
C       -1.30850000      -0.62300000       0.06680000
C       -1.68030000      -0.92510000      -1.40580000
C       -2.67630000      -2.09280000      -1.29560000
C       -2.12520000      -2.93740000      -0.14750000
O       -0.93390000      -3.66810000      -0.52620000
C       -0.11780000      -2.90990000       0.39650000
C       -1.29870000      -1.99260000       0.76390000
H        0.95570000       1.75310000       0.10090000
H       -0.13900000       1.43850000      -1.26780000
H       -0.80460000       1.96010000       0.30230000
H       -2.10560000      -0.00310000       0.51400000
H       -2.09200000      -0.06030000      -1.93190000
H       -0.77860000      -1.24570000      -1.93830000
H       -3.67600000      -1.72810000      -1.02700000
H       -2.77060000      -2.67350000      -2.21750000
H       -2.86580000      -3.59700000       0.31800000
H        0.24600000      -3.53550000       1.22100000
H        0.73300000      -2.42700000      -0.09400000
H       -1.54550000      -1.93280000       1.82360000
