17
Properties=species:S:1:pos:R:3 gdb_75648=T pbc="F F F"
O        0.12820000       1.41530000      -0.07280000
C        0.08090000       0.03170000       0.02290000
C        0.24380000      -0.67810000       1.44380000
O        0.72970000      -0.30780000       2.46750000
C       -0.65690000      -1.84990000       0.94630000
C       -2.21530000      -2.05960000       0.95140000
C       -2.35880000      -0.52210000       1.01950000
C       -1.22940000      -0.79220000      -0.03270000
C       -2.15240000      -1.91400000      -0.62270000
H       -0.29170000       1.78800000       0.71070000
H        0.82130000      -0.37830000      -0.67410000
H       -0.05960000      -2.64700000       0.49110000
H       -2.78630000      -2.80810000       1.50450000
H       -3.28200000      -0.09070000       0.62620000
H       -2.07150000      -0.05130000       1.96350000
H       -1.65370000      -2.71710000      -1.17020000
H       -3.07510000      -1.59690000      -1.11570000
