19
Properties=species:S:1:pos:R:3 gdb_53659=T pbc="F F F"
C       -0.06170000       1.51200000      -0.05130000
C       -0.05530000       0.06250000       0.07520000
C       -0.05700000      -1.13630000       0.17680000
C       -0.03310000      -2.58490000       0.31380000
O       -1.29450000      -3.12570000      -0.05490000
C       -1.32960000      -4.53870000      -0.11390000
C       -1.35490000      -5.23250000       1.24780000
C       -2.56030000      -4.87930000      -0.95120000
O       -3.11390000      -5.94650000      -0.93550000
H        0.73360000       1.85760000      -0.72060000
H       -1.01510000       1.86330000      -0.46090000
H        0.08210000       1.99910000       0.91920000
H        0.75720000      -3.01350000      -0.32670000
H        0.21910000      -2.85510000       1.35090000
H       -0.46220000      -4.90770000      -0.69590000
H       -1.57710000      -6.29230000       1.10280000
H       -0.39740000      -5.14270000       1.76680000
H       -2.13750000      -4.79580000       1.87490000
H       -2.89260000      -4.04070000      -1.60050000
