8
Properties=species:S:1:pos:R:3 gdb_484=T pbc="F F F"
C        0.07200000      -5.13850000      -0.02790000
C        0.05430000      -3.92940000      -0.01660000
C        0.03580000      -2.57660000      -0.00790000
C        0.01980000      -1.35920000      -0.00080000
C        0.00220000      -0.00630000       0.00350000
C       -0.01370000       1.20280000       0.00600000
H        0.08860000      -6.19980000      -0.04200000
H       -0.02730000       2.26420000       0.00540000
