16
Properties=species:S:1:pos:R:3 gdb_12255=T pbc="F F F"
O        0.06470000       1.21260000      -0.49570000
C        0.00900000      -0.17470000      -0.20000000
C       -1.41370000      -0.49540000       0.22120000
C       -2.43800000      -0.38990000      -0.95740000
C       -2.26180000      -1.90310000      -1.11340000
O       -2.23960000      -2.66880000      -2.03720000
C       -1.69680000      -2.04100000       0.30190000
O       -0.65340000      -2.95200000       0.49590000
H        0.96500000       1.42840000      -0.75590000
H        0.28570000      -0.78120000      -1.07830000
H        0.70030000      -0.44880000       0.60940000
H       -1.67560000       0.06810000       1.11780000
H       -3.44460000      -0.11690000      -0.62850000
H       -2.15660000       0.22760000      -1.81150000
H       -2.50410000      -2.21960000       1.02690000
H       -0.57140000      -3.45800000      -0.32280000
