13
Properties=species:S:1:pos:R:3 gdb_1459=T pbc="F F F"
O        0.09320000       1.33240000       0.31390000
C       -0.06890000      -0.04730000       0.14910000
C       -1.44770000      -0.34430000      -0.41910000
O       -2.26330000       0.50660000      -0.66590000
C       -1.75330000      -1.82850000      -0.63310000
C       -3.00300000      -2.23050000       0.13970000
O       -3.07940000      -3.21640000       0.82240000
H        0.96900000       1.49180000       0.67760000
H        0.67120000      -0.49260000      -0.54060000
H        0.01760000      -0.61240000       1.09540000
H       -1.98010000      -1.95340000      -1.70020000
H       -0.92800000      -2.49160000      -0.36400000
H       -3.84900000      -1.52310000       0.01980000
