27
Properties=species:S:1:pos:R:3 gdb_58622=T pbc="F F F"
C        0.61320000      -0.52220000       1.35990000
C        0.02070000      -0.09870000       0.00370000
C        1.00550000      -0.43110000      -1.12580000
C       -1.40160000      -0.67130000      -0.17400000
C       -1.81530000      -1.31460000      -1.47990000
C       -1.53570000      -2.17530000      -0.27560000
C       -2.46480000       0.16370000       0.57090000
C       -2.84680000       1.41220000      -0.24460000
C       -3.73000000      -0.60320000       0.97990000
H        1.55780000      -0.00240000       1.55250000
H       -0.06290000      -0.29990000       2.19110000
H        0.81550000      -1.59870000       1.37830000
H       -0.07840000       0.99510000       0.02040000
H        1.13380000      -1.51220000      -1.25280000
H        0.68420000      -0.01310000      -2.08380000
H        1.99200000      -0.01450000      -0.89730000
H       -2.84980000      -1.20550000      -1.78980000
H       -1.11600000      -1.34310000      -2.30650000
H       -0.62330000      -2.76340000      -0.27960000
H       -2.36880000      -2.67120000       0.20720000
H       -1.99720000       0.51420000       1.50090000
H       -1.96770000       1.98540000      -0.55430000
H       -3.39490000       1.13340000      -1.15120000
H       -3.48860000       2.07930000       0.34080000
H       -3.50840000      -1.41180000       1.68190000
H       -4.43730000       0.07480000       1.46880000
H       -4.24460000      -1.03630000       0.11440000
