14
Properties=species:S:1:pos:R:3 gdb_27066=T pbc="F F F"
C        0.07720000       1.48910000       0.07510000
C       -0.03690000       0.01410000       0.01910000
C       -1.05380000      -0.86160000      -0.18500000
O       -2.34790000      -0.52320000      -0.44940000
C       -3.34230000      -1.39590000      -0.09440000
O       -4.48230000      -1.15550000      -0.33840000
N       -0.60110000      -2.16420000      -0.14440000
C        0.66640000      -2.03330000       0.08530000
O        1.08960000      -0.75910000       0.19060000
H        0.74400000       1.87270000      -0.70490000
H       -0.91210000       1.92740000      -0.07270000
H        0.46540000       1.82730000       1.04200000
H       -2.95700000      -2.29200000       0.41160000
H        1.40730000      -2.80900000       0.19380000
