17
Properties=species:S:1:pos:R:3 gdb_126003=T pbc="F F F"
C        0.17940000       1.47580000       0.05760000
C       -0.05680000      -0.03190000      -0.05310000
C        0.71160000      -0.66630000      -1.25670000
N        1.88210000      -1.18520000      -0.57740000
N        3.05840000      -1.72040000      -0.98490000
N        3.66870000      -2.09540000       0.10410000
C        2.89580000      -1.83370000       1.20680000
C        1.73300000      -1.24780000       0.75910000
N        0.47410000      -0.77900000       1.12610000
H        1.24960000       1.70040000       0.11250000
H       -0.23850000       1.99720000      -0.80960000
H       -0.30500000       1.88020000       0.95260000
H       -1.12830000      -0.23030000      -0.14540000
H        0.14510000      -1.47700000      -1.72660000
H        0.97690000       0.06950000      -2.01890000
H        3.22680000      -2.07380000       2.20240000
H        0.43750000      -0.25980000       1.99340000
