18
Properties=species:S:1:pos:R:3 gdb_55903=T pbc="F F F"
N        0.01530000       1.28980000       0.40230000
C        0.13460000      -0.02430000       0.05550000
O        1.21140000      -0.57570000      -0.05640000
C       -1.19620000      -0.74170000      -0.20020000
C       -1.04790000      -2.23790000      -0.01920000
C       -1.50730000      -2.93420000       1.21400000
C       -2.23110000      -3.20160000      -0.10530000
C       -3.61350000      -2.70180000      -0.25780000
O       -4.46830000      -3.23660000      -0.92070000
H        0.85650000       1.83880000       0.47620000
H       -0.87040000       1.76430000       0.41090000
H       -1.97640000      -0.32650000       0.44610000
H       -1.49070000      -0.50900000      -1.23280000
H       -0.13600000      -2.61580000      -0.46790000
H       -0.91390000      -3.74180000       1.62590000
H       -2.05090000      -2.35360000       1.95420000
H       -2.05320000      -4.15000000      -0.60050000
H       -3.83610000      -1.76810000       0.31160000
