19
Properties=species:S:1:pos:R:3 gdb_108594=T pbc="F F F"
C        0.01710000       1.31430000      -0.27500000
O       -0.07870000       0.01390000       0.28570000
C       -1.32760000      -0.57060000       0.13400000
C       -2.44630000      -0.16350000       1.08760000
O       -3.37480000      -1.24970000       1.06530000
C       -2.63260000      -2.46490000       0.86750000
C       -1.45780000      -2.07750000      -0.00530000
C       -1.77300000      -1.16720000      -1.17810000
O       -3.05120000      -1.01290000      -1.71380000
H        1.05580000       1.63200000      -0.16030000
H       -0.24520000       1.31270000      -1.34150000
H       -0.63160000       2.03470000       0.24280000
H       -2.02230000      -0.00600000       2.09110000
H       -3.00130000       0.73260000       0.79280000
H       -2.28790000      -2.87410000       1.82850000
H       -3.32060000      -3.18200000       0.40930000
H       -0.57940000      -2.71110000      -0.03910000
H       -1.02700000      -1.16070000      -1.96650000
H       -3.67490000      -1.03100000      -0.97430000
