16
Properties=species:S:1:pos:R:3 gdb_525=T pbc="F F F"
C       -0.04480000       1.56160000      -0.03340000
C        0.00470000       0.03200000       0.00660000
C        0.73890000      -0.50910000       1.23680000
C        0.78500000      -2.05000000       1.27050000
C        1.48130000      -2.57780000       2.43750000
C        2.06120000      -2.98610000       3.40810000
H        0.96350000       1.98980000      -0.05060000
H       -0.57440000       1.92080000      -0.92120000
H       -0.55840000       1.96390000       0.84680000
H       -1.01750000      -0.36930000      -0.01160000
H        0.49350000      -0.34370000      -0.90230000
H        1.76460000      -0.12180000       1.26030000
H        0.25320000      -0.14750000       2.15110000
H       -0.23920000      -2.44610000       1.24770000
H        1.27100000      -2.42040000       0.35790000
H        2.57150000      -3.36000000       4.26040000
