17
Properties=species:S:1:pos:R:3 gdb_52062=T pbc="F F F"
O        0.83270000       0.52690000      -1.36660000
C        0.36440000       1.30070000      -0.55250000
N        0.99890000       1.71800000       0.57150000
C        2.35280000       1.28570000       0.88950000
C        3.43250000       2.13050000       0.22070000
C        4.63740000       1.41960000      -0.31170000
N        3.64390000       1.96180000      -1.23490000
C        3.53700000       3.47780000       0.72770000
C        3.59130000       4.58260000       1.19960000
H       -0.65180000       1.72740000      -0.64620000
H        0.57880000       2.45080000       1.12030000
H        2.47590000       1.31030000       1.97600000
H        2.44620000       0.24990000       0.55310000
H        5.59440000       1.93240000      -0.30950000
H        4.69240000       0.34470000      -0.15330000
H        3.01200000       1.23420000      -1.56890000
H        3.65900000       5.56660000       1.59320000
