21
Properties=species:S:1:pos:R:3 gdb_96169=T pbc="F F F"
O       -0.07660000       1.44870000       0.12460000
C        0.00850000       0.03310000      -0.01660000
C        0.74760000      -0.53740000       1.21150000
O        1.01520000      -1.92300000       1.19840000
C       -0.13160000      -2.74910000       1.35630000
C       -0.83510000      -3.02960000       0.04550000
C       -2.34110000      -2.96290000      -0.05970000
C       -1.49370000      -1.89350000      -0.70110000
C       -1.42940000      -0.47860000      -0.15420000
H        0.81790000       1.80120000       0.17600000
H        0.57250000      -0.23600000      -0.92430000
H        1.72920000      -0.05160000       1.28340000
H        0.17280000      -0.25650000       2.11060000
H        0.23150000      -3.68490000       1.79440000
H       -0.82300000      -2.29540000       2.08290000
H       -0.33870000      -3.77380000      -0.57040000
H       -2.84900000      -3.68120000      -0.69380000
H       -2.89570000      -2.69300000       0.83430000
H       -1.40420000      -1.94970000      -1.78270000
H       -1.92530000      -0.40720000       0.82120000
H       -1.96770000       0.20470000      -0.81940000
