17
Properties=species:S:1:pos:R:3 gdb_56605=T pbc="F F F"
O        0.13670000       1.52530000      -0.06340000
C        0.09230000       0.10940000      -0.02710000
C        0.62530000      -0.49650000      -1.25200000
C        1.07790000      -0.98750000      -2.25110000
C        0.84080000      -0.41860000       1.22550000
O        2.15250000       0.10600000       1.25420000
C        0.10580000      -0.04540000       2.51060000
C        0.76310000      -0.18220000       3.81400000
O        0.62820000       1.10430000       3.18630000
H        1.07340000       1.75600000      -0.11100000
H       -0.96960000      -0.15200000       0.06460000
H        1.47190000      -1.41860000      -3.13820000
H        0.90630000      -1.51170000       1.15290000
H        2.10870000       0.85790000       1.86670000
H       -0.98180000      -0.08490000       2.46800000
H        0.16400000      -0.31960000       4.71140000
H        1.77980000      -0.56670000       3.85620000
