15
Properties=species:S:1:pos:R:3 gdb_126362=T pbc="F F F"
C       -0.07730000       1.52950000       0.13220000
C        0.02630000       0.01910000      -0.05220000
C        0.73850000      -0.42220000      -1.29820000
N        1.21550000       0.44660000      -2.13390000
C        1.86200000      -0.02680000      -3.26500000
O        2.35930000       0.63900000      -4.13610000
N        1.90110000      -1.43880000      -3.33230000
N        1.39610000      -2.29190000      -2.44760000
N        0.81030000      -1.81690000      -1.42250000
H        0.91230000       1.99090000       0.17530000
H       -0.61510000       1.99280000      -0.69860000
H       -0.60800000       1.75800000       1.06030000
H        0.54100000      -0.45590000       0.79380000
H       -0.96490000      -0.45380000      -0.06790000
H        2.35570000      -1.86970000      -4.12770000
