15
Properties=species:S:1:pos:R:3 gdb_20617=T pbc="F F F"
C       -0.03080000       1.51900000       0.12860000
C        0.01080000       0.03740000      -0.02910000
C        0.01960000      -0.75240000      -1.15980000
O       -0.00890000      -0.32610000      -2.45610000
C        0.07100000      -2.08790000      -0.69950000
N        0.16680000      -3.21640000      -1.53980000
N        0.09980000      -2.14270000       0.62770000
N        0.06240000      -0.84620000       1.01070000
H        0.74090000       1.87640000       0.82000000
H        0.14180000       1.98930000      -0.84220000
H       -0.99990000       1.87200000       0.50190000
H        0.36230000      -1.04000000      -2.98980000
H       -0.72190000      -3.42880000      -1.98430000
H        0.44200000      -4.02840000      -0.99750000
H        0.08720000      -0.62980000       1.99140000
