15
Properties=species:S:1:pos:R:3 gdb_44556=T pbc="F F F"
O        0.00570000      -0.00880000       0.24920000
C       -0.01300000       1.18290000       0.05940000
N       -1.14790000       1.98190000      -0.09600000
C       -0.82940000       3.38040000       0.01400000
C       -0.77240000       4.03760000       1.41970000
O       -0.01040000       3.17430000       2.26040000
C        0.70520000       4.05760000       1.39990000
C        0.74200000       3.40170000      -0.00710000
N        1.09520000       2.01230000      -0.12620000
H       -2.01320000       1.59860000       0.24900000
H       -1.31770000       4.00500000      -0.73800000
H       -1.48470000       4.70130000       1.89670000
H        1.41180000       4.74040000       1.85780000
H        1.19280000       4.03900000      -0.77170000
H        1.97950000       1.65260000       0.19530000
