18
Properties=species:S:1:pos:R:3 gdb_105020=T pbc="F F F"
O        0.13880000       1.29080000      -0.27840000
C       -0.03490000      -0.02710000       0.25960000
C       -1.45040000      -0.47900000      -0.01230000
C       -1.75870000      -1.05940000      -1.36990000
C       -1.67220000      -1.96530000      -0.16980000
C       -2.49660000       0.40630000       0.67680000
O       -2.56930000       1.70100000       0.11570000
C       -3.84820000      -0.17950000       0.61500000
N       -4.89520000      -0.66610000       0.58290000
H        0.94040000       1.67530000       0.08900000
H        0.67280000      -0.72560000      -0.20740000
H        0.15840000      -0.02450000       1.34300000
H       -2.74120000      -0.86570000      -1.78480000
H       -0.95820000      -1.08300000      -2.10070000
H       -0.80780000      -2.61320000      -0.06880000
H       -2.59380000      -2.38590000       0.21490000
H       -2.23550000       0.46130000       1.74950000
H       -1.65670000       1.94110000      -0.10880000
