21
Properties=species:S:1:pos:R:3 gdb_32788=T pbc="F F F"
C       -0.15130000       1.59650000      -0.00320000
C       -0.16320000       0.06690000       0.04600000
C        0.80980000      -0.51130000       1.09160000
C        0.80180000      -2.00990000       1.16420000
C        1.77500000      -2.85690000       0.66490000
N        3.00470000      -2.64760000      -0.00760000
N        1.38000000      -4.14950000       0.92090000
C        0.17680000      -4.15200000       1.57370000
C       -0.20840000      -2.84160000       1.73610000
H        0.84480000       1.97840000      -0.25510000
H       -0.85250000       1.97920000      -0.75170000
H       -0.43120000       2.02610000       0.96540000
H       -1.17630000      -0.29090000       0.26670000
H        0.08980000      -0.34140000      -0.94080000
H        1.82590000      -0.16380000       0.86060000
H        0.56130000      -0.08650000       2.07380000
H        3.69600000      -2.20780000       0.59220000
H        2.89100000      -2.05080000      -0.81950000
H        1.91920000      -4.95140000       0.64360000
H       -0.29860000      -5.07360000       1.86840000
H       -1.11380000      -2.50640000       2.22080000
