15
Properties=species:S:1:pos:R:3 gdb_127587=T pbc="F F F"
C        0.01720000       1.44130000      -0.03360000
N        0.02900000      -0.00520000       0.00960000
N        0.04270000      -0.73080000      -1.15660000
C        0.06240000      -1.98990000      -0.77340000
C        0.06370000      -2.12850000       0.64320000
C        0.08120000      -3.32380000       1.45090000
O        0.09900000      -4.46370000       1.03720000
C        0.04280000      -0.80320000       1.08960000
O        0.03560000      -0.25280000       2.31430000
H        0.95290000       1.81590000      -0.45770000
H       -0.81520000       1.78080000      -0.65390000
H       -0.10090000       1.82060000       0.98140000
H        0.07390000      -2.78600000      -1.50260000
H        0.07740000      -3.13220000       2.55660000
H        0.03360000      -0.95280000       2.97720000
