25
Properties=species:S:1:pos:R:3 gdb_41811=T pbc="F F F"
C       -0.04770000       1.27480000      -0.54530000
C        1.02330000       2.05570000       0.26060000
C        1.94360000       0.99510000       0.94390000
C        1.55530000      -0.33380000       0.25510000
C        0.05450000      -0.19430000      -0.07620000
C       -0.88220000      -0.52630000       1.10000000
C       -0.71970000       0.29440000       2.39220000
C        0.64940000       0.13600000       3.07500000
C        1.81130000       0.95970000       2.48430000
H       -1.05530000       1.68240000      -0.41440000
H        0.17550000       1.33050000      -1.61600000
H        1.60540000       2.70590000      -0.39920000
H        0.56740000       2.71140000       1.00840000
H        2.98930000       1.23480000       0.72570000
H        2.11770000      -0.43760000      -0.68050000
H        1.78350000      -1.21700000       0.86080000
H       -0.21620000      -0.87200000      -0.89410000
H       -1.91750000      -0.42130000       0.74960000
H       -0.75520000      -1.58820000       1.35350000
H       -0.92870000       1.35500000       2.20270000
H       -1.49740000      -0.03800000       3.09060000
H        0.55770000       0.40490000       4.13420000
H        0.91360000      -0.92980000       3.06620000
H        2.74320000       0.56670000       2.91030000
H        1.73650000       1.99480000       2.84230000
