20
Properties=species:S:1:pos:R:3 gdb_93282=T pbc="F F F"
C       -0.10560000       1.56420000      -0.06410000
C        0.04320000       0.04670000       0.00620000
C        0.86630000      -0.56110000      -1.15600000
C        1.25780000      -1.96560000      -0.66930000
C        1.42300000      -1.80840000       0.84270000
O        2.01950000      -2.54520000       1.58480000
C        0.73470000      -0.51960000       1.24600000
C        1.36070000       0.30030000       2.32850000
N        0.15140000      -0.47790000       2.59930000
H        0.87120000       2.05820000      -0.08510000
H       -0.64860000       1.85530000      -0.96890000
H       -0.66590000       1.95980000       0.79130000
H       -0.96220000      -0.40050000      -0.03130000
H        0.30810000      -0.56880000      -2.09580000
H        1.76740000       0.04370000      -1.31590000
H        0.44000000      -2.67980000      -0.83700000
H        2.15450000      -2.38680000      -1.12830000
H        2.25760000      -0.08620000       2.80400000
H        1.29190000       1.38170000       2.25650000
H       -0.65970000       0.13950000       2.58090000
