15
Properties=species:S:1:pos:R:3 gdb_117027=T pbc="F F F"
C        0.01410000       1.40630000      -0.04530000
O       -0.00170000      -0.00330000       0.00920000
C        0.62320000      -0.59160000      -1.08790000
C        0.56450000      -2.10180000      -0.95530000
O        0.05550000      -2.69410000      -0.04160000
C        1.23130000      -2.86510000      -2.12320000
O        1.74360000      -2.26270000      -3.04270000
C        1.19540000      -4.30530000      -2.03260000
C        1.17250000      -5.50690000      -1.96930000
H        1.04130000       1.80240000      -0.05780000
H       -0.51270000       1.78600000      -0.93440000
H       -0.49510000       1.76730000       0.85060000
H        0.15260000      -0.31080000      -2.04710000
H        1.68290000      -0.29450000      -1.18400000
H        1.15210000      -6.56860000      -1.91240000
