21
Properties=species:S:1:pos:R:3 gdb_102310=T pbc="F F F"
C       -0.03120000       1.55000000       0.27290000
N       -0.01770000       0.17210000      -0.21860000
C       -1.30470000      -0.51150000      -0.10030000
C       -1.23070000      -1.95020000      -0.65700000
C       -0.81320000      -2.01420000      -2.13470000
C       -0.94540000      -3.42810000      -2.69750000
O       -1.52480000      -1.06270000      -2.92550000
C       -1.71880000      -0.56960000       1.31220000
N       -2.06970000      -0.62850000       2.41160000
H        0.93800000       2.00940000       0.06220000
H       -0.81890000       2.17810000      -0.17770000
H       -0.17670000       1.55330000       1.35700000
H        0.21570000       0.18690000      -1.20550000
H       -2.10840000       0.02150000      -0.63930000
H       -0.52360000      -2.53000000      -0.05530000
H       -2.21790000      -2.41350000      -0.53530000
H        0.23510000      -1.70480000      -2.22100000
H       -0.63000000      -3.45000000      -3.74390000
H       -0.33190000      -4.13720000      -2.13300000
H       -1.98590000      -3.77200000      -2.64290000
H       -2.44040000      -1.35680000      -2.99320000
