21
Properties=species:S:1:pos:R:3 gdb_114541=T pbc="F F F"
O        0.12010000       1.33390000       0.16020000
C        0.05060000      -0.07040000       0.03220000
C       -1.38790000      -0.55530000      -0.09930000
C       -1.51100000      -2.08730000      -0.25340000
C       -2.81720000      -2.57980000       0.38970000
C       -3.91260000      -1.47990000       0.24150000
C       -3.21350000      -0.80310000       1.45250000
C       -2.78130000      -2.22170000       1.90370000
O       -2.07110000      -0.05180000       1.06120000
H       -0.51080000       1.56270000       0.85340000
H        0.61710000      -0.34320000      -0.86510000
H        0.51490000      -0.57970000       0.89340000
H       -1.82920000      -0.06900000      -0.98090000
H       -1.48210000      -2.33240000      -1.32100000
H       -0.66000000      -2.59600000       0.21790000
H       -3.05600000      -3.60520000       0.09950000
H       -3.99120000      -0.92360000      -0.69560000
H       -4.89990000      -1.85170000       0.52540000
H       -3.78710000      -0.16540000       2.12790000
H       -3.56720000      -2.73030000       2.46840000
H       -1.82790000      -2.29870000       2.43320000
