18
Properties=species:S:1:pos:R:3 gdb_94050=T pbc="F F F"
C        0.27230000       1.43430000       0.37840000
C        0.20110000      -0.00400000      -0.07710000
O        1.30310000      -0.32830000      -0.89480000
C        1.41340000      -1.73710000      -0.80140000
C        1.07070000      -2.00780000       0.67820000
C        2.32820000      -2.04980000       1.56880000
C        2.01010000      -2.13460000       2.99150000
N        1.76170000      -2.21890000       4.11650000
O        0.26610000      -0.89390000       1.03790000
H        1.21190000       1.61100000       0.90710000
H        0.21130000       2.10240000      -0.48440000
H       -0.56160000       1.64940000       1.05060000
H       -0.73730000      -0.20420000      -0.62590000
H        0.69330000      -2.23820000      -1.46490000
H        2.42640000      -2.02940000      -1.08700000
H        0.49740000      -2.93260000       0.80700000
H        2.94450000      -2.91480000       1.29680000
H        2.92090000      -1.14720000       1.38500000
