17
Properties=species:S:1:pos:R:3 gdb_67430=T pbc="F F F"
C       -0.15620000       1.53380000      -0.05440000
C       -0.01810000       0.04770000      -0.00180000
C        0.06770000      -1.04700000      -0.98290000
O        1.19920000      -1.68570000      -0.42480000
C        0.89250000      -0.96230000       0.80860000
C       -0.37000000      -1.68100000       1.33960000
C       -1.06760000      -1.09510000       0.11900000
C       -2.48400000      -1.05990000      -0.22710000
O       -3.35930000      -1.61580000       0.39780000
H        0.79560000       2.00340000      -0.32590000
H       -0.89950000       1.82980000      -0.80110000
H       -0.47320000       1.94200000       0.91110000
H       -0.12870000      -1.11990000      -2.04500000
H        1.76890000      -0.74160000       1.41390000
H       -0.29930000      -2.76660000       1.44160000
H       -0.74650000      -1.23070000       2.26080000
H       -2.72220000      -0.46840000      -1.14320000
