22
Properties=species:S:1:pos:R:3 gdb_53584=T pbc="F F F"
C        0.57780000       0.47370000      -1.25500000
C        0.19600000      -0.54760000      -0.28910000
C       -0.10640000      -1.39190000       0.51660000
C       -0.51010000      -2.38490000       1.51740000
N       -1.54890000      -3.36550000       1.16300000
C       -2.31230000      -3.23460000      -0.07450000
C       -1.35570000      -4.36830000       0.10580000
C       -0.07980000      -4.40590000      -0.71480000
C       -1.89430000      -5.73880000       0.47280000
H        1.60150000       0.82160000      -1.07780000
H        0.53380000       0.08960000      -2.28010000
H       -0.08300000       1.34580000      -1.19880000
H        0.37020000      -2.94310000       1.86000000
H       -0.88330000      -1.84420000       2.39700000
H       -3.38550000      -3.39060000       0.01620000
H       -2.02220000      -2.44520000      -0.76470000
H        0.26200000      -3.40960000      -0.99850000
H        0.72550000      -4.89930000      -0.15660000
H       -0.23990000      -4.98680000      -1.62990000
H       -2.14640000      -6.31240000      -0.42660000
H       -1.14920000      -6.31210000       1.03680000
H       -2.78950000      -5.64760000       1.09220000
