23
Properties=species:S:1:pos:R:3 gdb_119568=T pbc="F F F"
C       -0.03660000       1.63200000      -0.12830000
C       -0.03470000       0.10350000      -0.20570000
C       -1.38900000      -0.51790000       0.17330000
C       -1.40860000      -2.01820000       0.08360000
C       -1.65180000      -2.78720000      -1.20700000
C       -2.53640000      -3.01760000      -0.02180000
O       -1.92940000      -3.93520000       0.88950000
C       -0.84920000      -2.98500000       1.14110000
C        0.53130000      -3.59590000       1.01640000
H        0.93860000       2.04740000      -0.40080000
H       -0.78260000       2.06110000      -0.80670000
H       -0.27490000       1.97810000       0.88370000
H        0.23360000      -0.21810000      -1.21970000
H        0.74540000      -0.29600000       0.45520000
H       -1.65800000      -0.20770000       1.19300000
H       -2.16790000      -0.10790000      -0.48330000
H       -2.08130000      -2.18430000      -2.00240000
H       -0.98950000      -3.58050000      -1.54140000
H       -3.61570000      -2.91440000       0.00020000
H       -0.98630000      -2.55920000       2.14550000
H        0.71740000      -3.96810000       0.00560000
H        1.29860000      -2.85370000       1.26200000
H        0.63540000      -4.43370000       1.71340000
