19
Properties=species:S:1:pos:R:3 gdb_82101=T pbc="F F F"
O       -0.28020000       1.46080000       0.25530000
C       -0.09650000       0.07230000       0.06420000
C       -1.39850000      -0.71510000       0.03920000
C       -2.24550000      -0.28120000      -1.12300000
C       -1.09180000      -1.20740000      -1.38190000
C        0.24070000      -0.44470000      -1.39280000
C        0.49290000       0.57260000      -2.47100000
C        1.85420000       1.00790000      -2.81940000
O        1.14660000       0.09540000      -3.65550000
H        0.58450000       1.88340000       0.23840000
H        0.61620000      -0.33290000       0.79360000
H       -1.80950000      -1.25850000       0.88050000
H       -3.22410000      -0.74740000      -1.17040000
H       -2.23170000       0.75280000      -1.45150000
H       -1.23520000      -2.19890000      -1.79220000
H        1.09210000      -1.13120000      -1.36330000
H       -0.31840000       1.26990000      -2.67430000
H        2.01680000       2.00080000      -3.23750000
H        2.70720000       0.58660000      -2.28680000
