25
Properties=species:S:1:pos:R:3 gdb_121833=T pbc="F F F"
C        0.06800000       1.50780000       0.24930000
C       -0.02520000       0.00880000      -0.05030000
C        0.67310000      -0.44530000      -1.35370000
C        0.07850000       0.24520000      -2.58400000
O        2.05120000      -0.04500000      -1.33160000
C        0.57590000      -1.98550000      -1.45850000
C        1.28910000      -2.60390000      -2.66460000
C        1.35230000      -4.12350000      -2.58550000
O        2.00290000      -4.59720000      -3.75540000
H        1.10540000       1.84740000       0.18630000
H       -0.52230000       2.10290000      -0.45350000
H       -0.30520000       1.72430000       1.25490000
H        0.42740000      -0.55190000       0.78050000
H       -1.07620000      -0.30480000      -0.08370000
H        0.17530000       1.32970000      -2.49990000
H        0.60360000      -0.06300000      -3.49060000
H       -0.98160000      -0.00330000      -2.69290000
H        2.46440000      -0.45980000      -0.56600000
H        1.00140000      -2.40650000      -0.53450000
H       -0.48320000      -2.27470000      -1.45720000
H        0.78110000      -2.33520000      -3.59680000
H        2.30680000      -2.20650000      -2.73300000
H        1.89760000      -4.42760000      -1.67600000
H        0.33300000      -4.53680000      -2.50260000
H        2.03870000      -5.55710000      -3.71160000
