21
Properties=species:S:1:pos:R:3 gdb_110623=T pbc="F F F"
C       -0.58050000       1.65240000       0.37390000
C       -0.35900000       0.21850000      -0.01450000
C       -0.86920000      -0.94930000       0.78740000
C       -1.84640000      -2.06960000       0.44130000
O       -2.73980000      -2.16990000       1.54740000
C        0.61950000      -0.81140000       0.56120000
C        1.14680000      -1.11380000      -0.86470000
C        0.10910000      -1.57330000      -1.84950000
C        0.15470000      -0.12210000      -1.44820000
H        0.25390000       2.28670000       0.05020000
H       -1.49410000       2.05340000      -0.08390000
H       -0.68050000       1.75670000       1.45890000
H       -1.10240000      -0.61420000       1.79810000
H       -2.40130000      -1.83870000      -0.47970000
H       -1.31440000      -3.02070000       0.28770000
H       -3.37210000      -2.86900000       1.35590000
H        1.29810000      -0.68720000       1.39740000
H        2.20590000      -1.19560000      -1.07260000
H        0.50480000      -1.75470000      -2.84590000
H       -0.70010000      -2.24140000      -1.59010000
H        0.34070000       0.66000000      -2.17390000
