16
Properties=species:S:1:pos:R:3 gdb_77836=T pbc="F F F"
C       -0.43370000       1.49280000      -0.00550000
C       -0.06530000       0.01660000       0.05930000
C        1.11590000      -0.60320000      -0.78870000
C        2.13900000      -0.07110000       0.28840000
C        2.55950000       1.31850000       0.30670000
N        2.99100000       2.39150000       0.33180000
C        0.91560000      -0.56810000       1.15230000
C        0.96260000      -1.77820000       0.19790000
O        0.87640000      -2.96300000       0.21040000
H        0.41050000       2.17480000       0.06940000
H       -0.94950000       1.69510000      -0.94990000
H       -1.13100000       1.72700000       0.80550000
H       -0.98390000      -0.57300000      -0.02480000
H        1.24900000      -0.60560000      -1.86770000
H        3.04040000      -0.68200000       0.39240000
H        0.82560000      -0.53140000       2.23510000
