18
Properties=species:S:1:pos:R:3 gdb_128327=T pbc="F F F"
C       -0.34180000       1.40920000      -0.40520000
N       -0.15000000      -0.02370000      -0.26840000
C       -1.24090000      -0.81400000       0.06530000
N       -1.06500000      -1.93830000       0.75060000
N       -2.32300000      -2.47750000       0.82500000
C       -3.24930000      -1.70470000       0.22530000
O       -4.53020000      -2.11160000       0.23550000
C       -5.44350000      -1.25290000      -0.43280000
C       -2.60230000      -0.59810000      -0.29210000
H        0.62030000       1.87510000      -0.63260000
H       -1.01130000       1.61980000      -1.24570000
H       -0.76140000       1.89360000       0.49120000
H        0.65990000      -0.27910000       0.28000000
H       -2.47540000      -3.34220000       1.31200000
H       -6.42620000      -1.71670000      -0.34030000
H       -5.45970000      -0.25950000       0.03140000
H       -5.18190000      -1.15080000      -1.49280000
H       -3.03230000       0.21830000      -0.84430000
