20
Properties=species:S:1:pos:R:3 gdb_63015=T pbc="F F F"
C       -0.13610000       1.58570000       0.02480000
C        0.00020000       0.06000000      -0.04170000
C       -1.39200000      -0.60060000      -0.01850000
C        0.81840000      -0.46430000      -1.22060000
C        2.28720000      -0.11560000      -1.34770000
C        1.86760000      -1.40060000      -0.67410000
N        1.72430000      -1.35730000       0.75230000
C        0.79030000      -0.44910000       1.19100000
O        0.61910000      -0.10760000       2.34080000
H        0.83450000       2.08230000      -0.06370000
H       -0.77840000       1.95100000      -0.78300000
H       -0.57570000       1.87520000       0.98310000
H       -1.99390000      -0.25300000      -0.86510000
H       -1.31680000      -1.69110000      -0.07820000
H       -1.91620000      -0.34470000       0.90640000
H        0.28670000      -0.72430000      -2.12880000
H        2.71780000      -0.17930000      -2.34160000
H        2.70750000       0.66450000      -0.72090000
H        2.08210000      -2.36830000      -1.11250000
H        2.45220000      -1.65690000       1.38350000
