17
Properties=species:S:1:pos:R:3 gdb_45003=T pbc="F F F"
N       -0.05200000       1.32160000       0.45520000
C       -0.01990000       0.11590000       0.04770000
C       -1.31390000      -0.63610000      -0.18070000
C       -1.24660000      -1.67930000      -1.27630000
C       -0.54820000      -1.38970000      -2.56590000
C        0.09460000      -2.32880000      -1.54770000
C        1.29120000      -1.85210000      -0.80620000
O        2.35050000      -2.44110000      -0.78040000
N        1.14470000      -0.63170000      -0.14700000
H        0.88770000       1.69470000       0.60860000
H       -1.56720000      -1.13190000       0.76600000
H       -2.09410000       0.10410000      -0.37080000
H       -2.10750000      -2.33810000      -1.32460000
H       -0.92280000      -1.84590000      -3.47460000
H       -0.09560000      -0.41370000      -2.70580000
H        0.14540000      -3.38060000      -1.79760000
H        2.01310000      -0.25920000       0.21510000
