23
Properties=species:S:1:pos:R:3 gdb_119011=T pbc="F F F"
C       -0.14880000       1.35550000       0.03520000
O        0.02610000      -0.04090000      -0.01440000
C        0.72610000      -0.56380000       1.10080000
C        0.71070000      -2.08350000       0.97270000
O       -0.64970000      -2.51890000       0.90320000
C        1.49850000      -2.61750000      -0.24560000
C        1.77920000      -4.07600000       0.13800000
C        2.19610000      -3.97000000       1.61750000
C        1.35130000      -2.79940000       2.18780000
H        0.81630000       1.88520000       0.03700000
H       -0.71020000       1.64840000      -0.85540000
H       -0.71140000       1.66350000       0.93020000
H        1.75940000      -0.18100000       1.12660000
H        0.22660000      -0.26370000       2.03650000
H       -1.07200000      -1.94250000       0.25360000
H        0.93930000      -2.49510000      -1.17610000
H        2.44270000      -2.06630000      -0.34850000
H        0.85370000      -4.65410000       0.04730000
H        2.53730000      -4.55420000      -0.48850000
H        2.04520000      -4.90140000       2.16940000
H        3.26360000      -3.73080000       1.68370000
H        1.96660000      -2.10960000       2.77460000
H        0.54380000      -3.14680000       2.83600000
