16
Properties=species:S:1:pos:R:3 gdb_85223=T pbc="F F F"
O       -0.10200000       1.35960000      -0.15370000
C       -0.04930000      -0.04570000       0.00030000
C        0.28550000      -0.47770000       1.45820000
C       -1.23510000      -0.47740000       1.72440000
O       -1.91640000      -0.33850000       2.69330000
C       -1.51980000      -0.53280000       0.20200000
N       -2.58780000       0.21810000      -0.37010000
C       -3.54570000      -0.34920000      -1.15760000
O       -3.61250000      -1.52910000      -1.42610000
H        0.79100000       1.71140000      -0.08580000
H        0.51730000      -0.52690000      -0.80320000
H        0.71110000      -1.48420000       1.52400000
H        0.88470000       0.21260000       2.05550000
H       -1.63770000      -1.57470000      -0.11260000
H       -2.57510000       1.21840000      -0.24740000
H       -4.27120000       0.40010000      -1.52690000
