15
Properties=species:S:1:pos:R:3 gdb_12953=T pbc="F F F"
N       -0.13150000       1.48140000       0.16000000
C       -0.11750000       0.04680000       0.04410000
C       -0.51900000      -0.82200000       1.21250000
N       -1.60920000      -0.20900000       1.98550000
C       -2.44690000      -0.15280000       0.82230000
N       -3.65440000       0.13990000       0.60870000
C       -1.39660000      -0.74790000      -0.06290000
O       -1.59980000      -1.58300000      -1.13080000
H        0.79940000       1.83130000       0.36410000
H       -0.43040000       1.90830000      -0.71100000
H        0.65480000      -0.42350000      -0.57160000
H        0.07110000      -1.63110000       1.62220000
H       -1.39540000       0.69590000       2.39820000
H       -4.10770000       0.47940000       1.45970000
H       -2.40010000      -2.09230000      -0.95540000
