10
Properties=species:S:1:pos:R:3 gdb_132084=T pbc="F F F"
F        0.04960000       0.04690000       0.00280000
C       -0.01390000       1.35940000       0.01050000
C       -1.21360000       1.99280000       0.03050000
F       -2.36210000       1.33590000       0.04300000
C       -1.27600000       3.43710000       0.03880000
O       -2.23390000       4.14630000       0.05580000
O        0.01950000       4.03200000       0.02390000
C        1.12400000       3.28770000       0.00470000
N        1.18080000       2.00630000      -0.00270000
H        2.02550000       3.89130000      -0.00470000
