19
Properties=species:S:1:pos:R:3 gdb_39997=T pbc="F F F"
C       -0.56960000       1.30700000       0.26140000
O        0.79860000       1.04380000      -0.07870000
C       -0.08100000      -0.05870000       0.05980000
C        0.12390000      -1.17640000       1.08660000
C       -0.44050000      -2.17740000       0.02680000
C       -1.91260000      -2.47510000       0.12090000
C       -2.62920000      -1.83930000      -0.80680000
C       -1.78020000      -0.99510000      -1.73240000
C       -0.38900000      -1.05430000      -1.07190000
H       -0.73900000       1.67350000       1.27360000
H       -1.15380000       1.80310000      -0.51280000
H        1.18480000      -1.33520000       1.30030000
H       -0.42180000      -1.09350000       2.03030000
H        0.16740000      -3.07400000      -0.12420000
H       -2.32190000      -3.14070000       0.87410000
H       -3.70590000      -1.91400000      -0.91860000
H       -1.77160000      -1.40800000      -2.75020000
H       -2.15550000       0.03170000      -1.82510000
H        0.43780000      -1.12140000      -1.78160000
