20
Properties=species:S:1:pos:R:3 gdb_95714=T pbc="F F F"
O       -0.61420000       1.49150000      -0.63870000
C       -0.04280000       0.30430000      -0.10490000
C       -1.20520000      -0.49650000       0.47810000
C       -0.79980000      -1.80060000       1.19740000
C       -0.50470000      -2.94910000       0.24430000
O       -1.21500000      -3.92610000       0.18450000
C        0.73260000      -2.85890000      -0.67090000
N        1.48740000      -1.62450000      -0.75330000
C        0.76790000      -0.43630000      -1.18540000
H        0.09090000       2.01380000      -1.03530000
H        0.64980000       0.55180000       0.72190000
H       -1.72260000       0.15200000       1.19170000
H       -1.92540000      -0.71280000      -0.32040000
H        0.07950000      -1.61160000       1.82860000
H       -1.61250000      -2.13700000       1.84490000
H        1.40730000      -3.66320000      -0.35170000
H        0.39220000      -3.14540000      -1.67390000
H        2.02440000      -1.44940000       0.08740000
H        0.09620000      -0.71550000      -2.00670000
H        1.49250000       0.27720000      -1.60660000
