22
Properties=species:S:1:pos:R:3 gdb_16169=T pbc="F F F"
C        0.05300000       1.52630000       0.37340000
C        0.02260000       0.03900000      -0.00310000
C       -1.37570000      -0.51720000      -0.17040000
C       -2.13720000      -0.98950000       1.04930000
C       -1.69110000      -1.98940000       0.00620000
C       -2.70390000      -2.40690000      -1.04940000
C       -3.33250000      -1.07860000      -1.53190000
C       -2.22880000      -0.01430000      -1.33490000
H        1.08040000       1.87900000       0.50820000
H       -0.41030000       2.14420000      -0.40270000
H       -0.49080000       1.70500000       1.30710000
H        0.58580000      -0.11110000      -0.93490000
H        0.54780000      -0.53910000       0.76770000
H       -1.59770000      -0.99050000       1.99120000
H       -3.19360000      -0.76120000       1.15310000
H       -0.90870000      -2.69050000       0.27970000
H       -2.18000000      -2.90560000      -1.87420000
H       -3.45720000      -3.10970000      -0.67630000
H       -3.68170000      -1.13170000      -2.56650000
H       -4.20700000      -0.83170000      -0.92170000
H       -2.64670000       0.98480000      -1.16920000
H       -1.59510000       0.04990000      -2.22980000
