16
Properties=species:S:1:pos:R:3 gdb_18449=T pbc="F F F"
C        1.60650000       0.61570000      -1.89790000
C        1.83110000      -0.72190000      -1.22790000
O        3.23120000      -1.05210000      -0.94520000
C        2.86870000      -1.49900000       0.36210000
C        2.43400000      -0.34190000       1.22600000
C        3.05730000       1.00380000       1.13290000
O        3.01220000       1.81690000       2.02640000
C        1.46210000      -1.00260000       0.22670000
H        2.15620000       0.65650000      -2.84370000
H        0.54140000       0.73860000      -2.12130000
H        1.92500000       1.45440000      -1.27610000
H        1.42240000      -1.52390000      -1.85750000
H        3.30300000      -2.42090000       0.73030000
H        2.17130000      -0.61280000       2.24550000
H        3.61450000       1.20410000       0.19720000
H        0.52860000      -1.41830000       0.58000000
