21
Properties=species:S:1:pos:R:3 gdb_93871=T pbc="F F F"
C       -0.45210000       1.48120000       0.02330000
C       -0.02280000       0.01740000       0.03980000
C        0.80370000      -0.42560000      -1.19490000
C        1.67900000      -1.61630000      -0.72600000
C        1.35670000      -1.82160000       0.77500000
O        2.39910000      -2.37110000       1.54140000
C        0.84980000      -0.42210000       1.24490000
C        1.98480000       0.45850000       1.50060000
C        2.96220000       1.13280000       1.70100000
H        0.41910000       2.14380000       0.01780000
H       -1.04820000       1.69760000      -0.86960000
H       -1.06040000       1.73220000       0.89870000
H       -0.92460000      -0.60740000       0.09010000
H        0.15010000      -0.68280000      -2.03310000
H        1.43450000       0.40400000      -1.53030000
H        1.50150000      -2.53230000      -1.29470000
H        2.74380000      -1.38310000      -0.82500000
H        0.51980000      -2.52000000       0.88370000
H        3.08720000      -1.69630000       1.61020000
H        0.25650000      -0.51140000       2.16150000
H        3.80150000       1.75590000       1.89000000
