24
Properties=species:S:1:pos:R:3 gdb_99783=T pbc="F F F"
C       -0.26650000       0.23140000      -0.84660000
O       -0.13060000      -0.80250000       0.10150000
C        0.75490000      -0.54290000       1.18390000
C        0.44240000      -1.61320000       2.24950000
C        1.35690000      -1.50920000       3.47810000
C       -1.03370000      -1.55120000       2.66610000
C        2.20040000      -0.56120000       0.71520000
C        2.85600000       0.67010000       0.20140000
N        3.26230000       0.09970000       1.49390000
H        0.63910000       0.37270000      -1.45080000
H       -1.08800000      -0.05300000      -1.50950000
H       -0.51720000       1.19150000      -0.36820000
H        0.54000000       0.45900000       1.60600000
H        0.62100000      -2.58400000       1.76690000
H        1.10080000      -2.28810000       4.20320000
H        2.41340000      -1.62060000       3.22370000
H        1.22860000      -0.54400000       3.98470000
H       -1.69080000      -1.64090000       1.80000000
H       -1.26960000      -2.35630000       3.36930000
H       -1.25680000      -0.60040000       3.16670000
H        2.50790000      -1.51610000       0.29190000
H        3.60150000       0.60350000      -0.58590000
H        2.28020000       1.59230000       0.20260000
H        2.84670000       0.63940000       2.25010000
