15
Properties=species:S:1:pos:R:3 gdb_34193=T pbc="F F F"
N        0.01290000      -1.10800000      -0.04890000
C       -0.01200000       0.04970000      -0.03590000
C       -0.04320000       1.47310000      -0.03760000
N       -1.15610000       2.24760000       0.54780000
C       -0.70510000       3.42650000      -0.33880000
C        0.17440000       4.24560000       0.57850000
C        1.28890000       3.54610000       0.81710000
C        1.28980000       2.31810000      -0.02330000
C        0.27240000       2.48240000      -1.11250000
H       -2.00980000       1.87490000       0.13320000
H       -1.51840000       3.92430000      -0.86170000
H       -0.15840000       5.13650000       1.09370000
H        2.05440000       3.76960000       1.54860000
H        2.18440000       1.73600000      -0.20600000
H        0.44140000       2.37410000      -2.17660000
