18
Properties=species:S:1:pos:R:3 gdb_58548=T pbc="F F F"
C        0.00270000       1.60120000       0.04130000
C        0.00790000       0.07470000      -0.03980000
O        0.80050000      -0.50150000       0.99180000
C       -1.40850000      -0.53310000      -0.01580000
N       -2.22180000      -0.01570000      -1.10230000
C       -1.45820000      -2.06890000       0.14220000
O       -2.05570000      -1.92950000       1.47580000
C       -2.02310000      -0.56520000       1.40870000
O       -2.37450000       0.21750000       2.23730000
H        1.03230000       1.96340000       0.10220000
H       -0.45730000       2.04940000      -0.84400000
H       -0.54350000       1.94260000       0.92800000
H        0.47750000      -0.24040000      -0.97860000
H        0.57240000      -0.07070000       1.82400000
H       -3.13400000      -0.46350000      -1.10870000
H       -2.39340000       0.97630000      -0.96920000
H       -2.13720000      -2.59010000      -0.53580000
H       -0.49330000      -2.56970000       0.20990000
