17
Properties=species:S:1:pos:R:3 gdb_48505=T pbc="F F F"
O       -0.21810000       0.39460000      -0.86820000
C        0.07920000       1.03090000       0.12030000
C        1.26150000       1.87940000       0.21990000
C        2.67120000       1.62760000      -0.33900000
C        1.87680000       2.79460000      -0.85100000
C        2.27140000       3.88510000       0.17760000
C        3.78330000       3.70010000       0.45700000
C        3.37050000       2.27060000       0.88600000
C        1.93480000       2.79970000       1.27280000
H       -0.55590000       1.00010000       1.03520000
H        2.96880000       0.78700000      -0.95020000
H        1.53710000       2.89000000      -1.87290000
H        1.78640000       4.85770000       0.11650000
H        4.48830000       3.81650000      -0.37160000
H        4.10990000       4.29830000       1.31350000
H        3.97860000       1.63740000       1.52950000
H        1.60410000       3.01880000       2.28500000
