19
Properties=species:S:1:pos:R:3 gdb_4906=T pbc="F F F"
C       -0.22730000       1.53440000       0.03900000
C        0.13910000       0.04410000      -0.06650000
C        0.79170000      -0.50040000       1.17190000
C        2.10760000      -0.87750000       1.30720000
N        2.30380000      -1.29790000       2.60250000
C        1.13050000      -1.20190000       3.31310000
C        1.04070000      -1.59760000       4.75020000
C        0.18000000      -0.70890000       2.44750000
H        0.66560000       2.14260000       0.21530000
H       -0.70840000       1.88960000      -0.87860000
H       -0.91590000       1.71180000       0.87130000
H       -0.77000000      -0.52910000      -0.29140000
H        0.80900000      -0.10330000      -0.92210000
H        2.91430000      -0.88260000       0.59080000
H        3.17350000      -1.63790000       2.97380000
H        1.71230000      -1.00780000       5.38720000
H        0.02260000      -1.44210000       5.11430000
H        1.28920000      -2.65510000       4.90740000
H       -0.85330000      -0.52010000       2.70130000
