21
Properties=species:S:1:pos:R:3 gdb_40004=T pbc="F F F"
C        0.90470000       1.17440000      -0.00040000
O        1.21450000      -0.21970000      -0.01100000
C       -0.17420000       0.18100000       0.00480000
C       -0.90440000      -0.16760000       1.30070000
C       -1.84130000      -1.36720000       1.07750000
C       -2.92000000      -0.99150000       0.02520000
C       -1.86210000      -1.35570000      -1.05200000
C       -1.24440000      -2.32540000       0.00160000
C       -0.92960000      -0.15360000      -1.28040000
H        1.15740000       1.70390000       0.91860000
H        1.13940000       1.71380000      -0.91830000
H       -0.14600000      -0.38780000       2.05870000
H       -1.48760000       0.69120000       1.65820000
H       -2.17710000      -1.79350000       2.02560000
H       -3.75490000      -1.69740000       0.02950000
H       -3.31330000       0.03120000       0.03460000
H       -2.21640000      -1.77160000      -1.99790000
H       -0.16340000      -2.48300000      -0.00980000
H       -1.75510000      -3.29160000       0.00130000
H       -1.51960000       0.70900000      -1.61710000
H       -0.18620000      -0.36540000      -2.05540000
