16
Properties=species:S:1:pos:R:3 gdb_45316=T pbc="F F F"
N        0.08640000       0.89800000       0.81950000
C        0.05170000      -0.14700000       0.11250000
N        0.91940000      -0.88170000      -0.68150000
C        0.00190000      -2.01530000      -0.88800000
C        0.32190000      -3.30830000      -0.13300000
N       -0.01610000      -3.32380000       1.28680000
C       -0.96840000      -2.59630000       1.68170000
O       -1.70490000      -1.69800000       0.97170000
C       -1.08570000      -1.14660000      -0.17480000
H        1.01890000       1.31480000       0.84080000
H        1.92900000      -0.89840000      -0.65860000
H       -0.18150000      -2.22080000      -1.94790000
H       -0.22580000      -4.13190000      -0.61180000
H        1.38540000      -3.55140000      -0.24140000
H       -1.32880000      -2.64880000       2.70680000
H       -1.88370000      -0.76610000      -0.81130000
