18
Properties=species:S:1:pos:R:3 gdb_10631=T pbc="F F F"
C       -0.21170000       1.47370000       0.06590000
C        0.23800000       0.00980000       0.13270000
C        0.76830000      -0.53130000      -1.19230000
C        0.67650000      -2.00060000      -1.49880000
N       -0.09240000      -1.04620000      -2.27070000
C       -1.54130000      -1.03050000      -2.12630000
C        1.92790000       0.19090000      -1.69000000
N        2.86060000       0.77310000      -2.04800000
H        0.60690000       2.12080000      -0.26240000
H       -1.04410000       1.60650000      -0.63170000
H       -0.54010000       1.81800000       1.05060000
H        1.03640000      -0.09750000       0.87630000
H       -0.58280000      -0.62690000       0.47450000
H        1.48300000      -2.50700000      -2.02140000
H        0.15910000      -2.60180000      -0.75080000
H       -1.90850000      -1.28450000      -1.12110000
H       -1.92190000      -0.04250000      -2.40010000
H       -1.95520000      -1.75960000      -2.82920000
