11
Properties=species:S:1:pos:R:3 gdb_3026=T pbc="F F F"
C        0.04290000      -3.76110000      -0.05530000
C        0.03800000      -2.55400000      -0.02310000
C        0.03160000      -1.19510000       0.01230000
C        0.03100000       0.01490000       0.05270000
C       -0.00660000       1.44850000       0.07210000
C        0.51920000       2.22260000       1.21710000
O        1.24830000       2.14610000       0.00120000
H        0.04840000      -4.82260000      -0.08340000
H       -0.79750000       1.90150000      -0.52490000
H        0.07370000       3.19020000       1.44410000
H        0.95060000       1.68670000       2.06000000
