18
Properties=species:S:1:pos:R:3 gdb_125871=T pbc="F F F"
C       -0.02720000       1.53630000      -0.22950000
C       -0.01800000       0.04320000      -0.00110000
C        1.23400000      -0.76790000      -0.19840000
C        0.68320000      -0.58810000       1.19780000
C        1.38570000       0.20620000       2.22280000
C        2.57500000       0.90170000       2.18650000
N        2.69430000       1.41820000       3.43330000
N        1.65810000       1.06780000       4.21390000
N        0.86630000       0.33790000       3.48480000
H        0.90930000       1.99870000       0.09620000
H       -0.16190000       1.76730000      -1.29190000
H       -0.84050000       2.01630000       0.32510000
H       -0.94490000      -0.45330000      -0.27600000
H        1.16750000      -1.75110000      -0.65090000
H        2.14000000      -0.22770000      -0.45660000
H        0.16600000      -1.44070000       1.62560000
H        3.31720000       1.05550000       1.42240000
H        3.43090000       1.98880000       3.81610000
