19
Properties=species:S:1:pos:R:3 gdb_86366=T pbc="F F F"
C        0.07470000       1.53870000      -0.00760000
C        0.10560000       0.01870000       0.01310000
C        1.04630000      -0.74360000      -0.96740000
C        1.33030000      -1.76530000       0.17050000
O        2.60780000      -2.29130000       0.35980000
C        0.81000000      -0.70900000       1.19170000
O        1.93360000       0.04600000       1.66470000
C        2.10640000       0.19790000       2.99440000
O        3.03980000       0.77800000       3.45820000
H        1.07810000       1.95350000       0.11940000
H       -0.32570000       1.90010000      -0.96030000
H       -0.55900000       1.93780000       0.79200000
H       -0.91190000      -0.38010000      -0.06410000
H        0.62570000      -1.12210000      -1.90100000
H        1.94200000      -0.15550000      -1.19230000
H        0.64160000      -2.61350000       0.11960000
H        3.19170000      -1.55300000       0.57270000
H        0.20730000      -1.04410000       2.04210000
H        1.29430000      -0.26680000       3.58490000
