23
Properties=species:S:1:pos:R:3 gdb_101780=T pbc="F F F"
C        0.03050000       1.53350000       0.09080000
C       -0.03770000       0.00570000       0.00420000
C       -1.46710000      -0.56850000       0.00020000
C       -2.28120000      -0.13330000      -1.22600000
C       -1.39530000      -2.08980000       0.09920000
O       -2.73340000      -2.59980000       0.25970000
C       -2.85170000      -3.94280000       0.31440000
C       -4.29840000      -4.34390000       0.48230000
O       -1.91750000      -4.70010000       0.23820000
H        1.06910000       1.87310000       0.15040000
H       -0.42150000       2.01360000      -0.78210000
H       -0.49120000       1.90230000       0.98110000
H        0.48780000      -0.33340000      -0.89930000
H        0.51160000      -0.42210000       0.85280000
H       -1.98110000      -0.20970000       0.90340000
H       -3.26590000      -0.60680000      -1.22220000
H       -2.42930000       0.94950000      -1.24900000
H       -1.77060000      -0.42160000      -2.15310000
H       -0.95070000      -2.53190000      -0.79980000
H       -0.79210000      -2.40930000       0.95540000
H       -4.89110000      -3.97100000      -0.35800000
H       -4.37000000      -5.42950000       0.53460000
H       -4.70910000      -3.89750000       1.39230000
