21
Properties=species:S:1:pos:R:3 gdb_86559=T pbc="F F F"
O        0.45120000       0.36530000      -0.86060000
C       -0.25960000      -0.40820000       0.07210000
C        0.10700000      -0.32820000       1.57910000
C       -1.41520000      -0.39680000       1.91460000
C       -1.72260000      -0.03130000       0.43080000
C       -1.88750000      -1.76310000       2.37330000
C       -3.39660000      -2.09560000       2.30720000
C       -2.95270000      -3.27820000       1.42560000
O       -1.58150000      -2.82770000       1.43330000
H        0.42720000       1.28240000      -0.56720000
H       -0.20560000      -1.43830000      -0.28310000
H        0.75300000      -1.11080000       1.98480000
H        0.53390000       0.64830000       1.83350000
H       -1.75820000       0.33350000       2.65540000
H       -1.89500000       1.04410000       0.31280000
H       -2.52180000      -0.57100000      -0.08310000
H       -1.43940000      -1.98740000       3.35290000
H       -3.87630000      -2.34780000       3.25380000
H       -3.99410000      -1.34320000       1.78850000
H       -3.05620000      -4.26760000       1.88920000
H       -3.36420000      -3.31820000       0.41050000
