18
Properties=species:S:1:pos:R:3 gdb_46395=T pbc="F F F"
O        0.44870000       0.14990000      -0.50460000
C        0.24090000       1.30200000      -0.23030000
N       -0.89160000       2.07810000      -0.20690000
C       -0.26240000       3.26360000       0.38770000
C        1.09190000       2.51360000       0.27450000
O        1.73780000       2.34520000       1.50560000
C        2.90120000       1.56420000       1.40890000
C        4.19330000       2.24360000       1.03370000
C        3.93040000       1.80270000       2.46140000
H       -1.86140000       1.84100000      -0.35550000
H       -0.36110000       4.17620000      -0.20670000
H       -0.54560000       3.45220000       1.42710000
H        1.77120000       2.91150000      -0.49090000
H        2.72380000       0.55190000       1.05570000
H        4.91450000       1.69590000       0.43740000
H        4.15150000       3.30910000       0.83640000
H        3.71010000       2.58070000       3.18330000
H        4.46930000       0.95020000       2.85840000
