23
Properties=species:S:1:pos:R:3 gdb_113222=T pbc="F F F"
C       -0.35900000       1.38280000      -0.60310000
C       -0.14750000       0.15860000       0.29720000
C       -1.36960000      -0.72740000       0.33110000
O       -1.64950000      -1.51200000      -0.84310000
C       -1.38490000      -2.20260000       0.39050000
C       -0.11620000      -3.02800000       0.42350000
C       -2.58200000      -2.89830000       0.98540000
C       -3.97950000      -2.51770000       0.58030000
C       -3.39890000      -3.83400000       0.12630000
H        0.52950000       2.02100000      -0.61630000
H       -0.57140000       1.07050000      -1.62990000
H       -1.20250000       1.98960000      -0.25620000
H        0.72180000      -0.40650000      -0.04990000
H        0.07100000       0.48250000       1.32340000
H       -2.25980000      -0.23120000       0.72730000
H        0.71060000      -2.52860000      -0.08300000
H        0.18060000      -3.23470000       1.45780000
H       -0.28730000      -3.98970000      -0.07110000
H       -2.43710000      -3.20120000       2.01940000
H       -4.75370000      -2.52410000       1.33930000
H       -4.07940000      -1.74560000      -0.17380000
H       -3.12400000      -3.91270000      -0.92000000
H       -3.77070000      -4.75150000       0.56850000
