17
Properties=species:S:1:pos:R:3 gdb_120424=T pbc="F F F"
O        0.08380000       1.31670000       0.23840000
C        0.00980000      -0.08920000       0.07960000
C       -1.43340000      -0.58150000      -0.07380000
C       -1.51620000      -2.07230000      -0.31620000
O       -1.03690000      -2.85470000       0.84970000
C       -2.27390000      -3.39480000       1.06670000
O       -2.63340000      -4.08750000       1.96410000
C       -2.89790000      -2.75160000      -0.18430000
O       -3.97690000      -1.88120000       0.01890000
H       -0.30220000       1.53900000       1.09150000
H        0.58010000      -0.31550000      -0.82870000
H        0.49780000      -0.61950000       0.91000000
H       -2.01750000      -0.33000000       0.81840000
H       -1.90510000      -0.06360000      -0.91680000
H       -0.94620000      -2.37860000      -1.19760000
H       -3.09660000      -3.48860000      -0.97470000
H       -4.67100000      -2.36960000       0.47590000
