20
Properties=species:S:1:pos:R:3 gdb_10600=T pbc="F F F"
C        0.01400000       1.46940000      -0.19800000
C        0.08150000      -0.02250000       0.05410000
C        1.38740000      -0.77720000       0.00480000
C        0.64320000      -0.64120000       1.31910000
C        1.24690000       0.22330000       2.41540000
O        2.31140000      -0.41440000       3.10030000
C       -0.06320000      -1.87800000       1.83860000
O        0.80960000      -2.75320000       2.56490000
H        0.91350000       1.98830000       0.14310000
H       -0.08640000       1.66660000      -1.27080000
H       -0.84650000       1.92470000       0.30460000
H       -0.77090000      -0.56010000      -0.35760000
H        1.41050000      -1.74360000      -0.49090000
H        2.30130000      -0.20230000      -0.10650000
H        1.66280000       1.14450000       1.99840000
H        0.44710000       0.52040000       3.11640000
H        1.98070000      -1.28690000       3.35380000
H       -0.84550000      -1.60330000       2.55500000
H       -0.54570000      -2.41930000       1.01140000
H        1.50880000      -3.02160000       1.95730000
