14
Properties=species:S:1:pos:R:3 gdb_5678=T pbc="F F F"
C       -0.05910000       1.47060000       0.01060000
C        1.40250000       1.88030000      -0.00110000
C        2.19760000       0.79570000      -0.01470000
C        1.37390000      -0.39780000      -0.01350000
C        1.32530000      -1.77250000      -0.02050000
N        0.01410000      -2.19290000      -0.01020000
C       -0.72260000      -1.09770000       0.00270000
N        0.05390000       0.01720000       0.00140000
H       -0.58800000       1.82640000       0.90340000
H       -0.60490000       1.83630000      -0.86800000
H        1.71190000       2.91600000       0.00170000
H        3.27830000       0.79280000      -0.02500000
H        2.14160000      -2.47770000      -0.03220000
H       -1.80170000      -1.06520000       0.01320000
