17
Properties=species:S:1:pos:R:3 gdb_99004=T pbc="F F F"
C        1.08430000       1.58600000      -1.85030000
O        1.18150000       0.16530000      -1.99570000
C        0.58730000      -0.55550000      -1.05020000
N       -0.03350000      -0.03840000      -0.06950000
N        0.73560000      -1.93770000      -1.27740000
C        1.37750000      -2.62410000      -2.28950000
O        1.96790000      -2.13530000      -3.22660000
C        1.29480000      -4.15110000      -2.15010000
O        1.96520000      -4.76090000      -3.20760000
H        0.03870000       1.90290000      -1.85870000
H        1.54170000       1.90880000      -0.91190000
H        1.62120000       1.99710000      -2.70500000
H       -0.42710000      -0.73440000       0.55790000
H        0.29380000      -2.51070000      -0.57450000
H        1.73040000      -4.44160000      -1.17950000
H        0.23260000      -4.44680000      -2.12610000
H        2.30210000      -4.02360000      -3.74480000
