21
Properties=species:S:1:pos:R:3 gdb_104895=T pbc="F F F"
O        0.00720000       1.41950000      -0.08480000
C       -0.00430000      -0.00840000      -0.00640000
C       -1.45420000      -0.50550000      -0.03340000
C       -2.18940000      -0.02640000      -1.29580000
O       -2.47940000       1.35670000      -1.28740000
C       -1.44700000      -2.05860000       0.09000000
C       -2.06970000      -2.32190000       1.47970000
O       -1.92570000      -1.11090000       2.20220000
C       -2.18620000      -0.07790000       1.26350000
H        0.91890000       1.72350000      -0.10580000
H        0.54840000      -0.44380000      -0.85300000
H        0.47360000      -0.34570000       0.92480000
H       -1.60680000      -0.31600000      -2.18850000
H       -3.15500000      -0.54160000      -1.36480000
H       -1.64780000       1.80480000      -1.08330000
H       -2.02030000      -2.53400000      -0.71100000
H       -0.42770000      -2.45370000       0.03440000
H       -3.13550000      -2.58500000       1.37950000
H       -1.57330000      -3.11600000       2.04300000
H       -1.81930000       0.86260000       1.67670000
H       -3.26680000       0.01990000       1.07530000
