16
Properties=species:S:1:pos:R:3 gdb_18229=T pbc="F F F"
O       -0.80380000       1.21520000      -0.35190000
C        0.18760000       1.05040000       0.31410000
C        1.44160000       1.89710000       0.22250000
C        1.54390000       2.72390000      -1.08210000
O        2.12780000       3.98050000      -0.74270000
C        1.87720000       4.23230000       0.60970000
C        0.47200000       4.11920000       1.13930000
C        1.45670000       2.97310000       1.31690000
H        0.22070000       0.25980000       1.09700000
H        2.31280000       1.24780000       0.36830000
H        2.17950000       2.25220000      -1.83590000
H        0.54270000       2.85580000      -1.50670000
H        2.57370000       4.94940000       1.02780000
H        0.22800000       4.69690000       2.02420000
H       -0.35050000       3.99440000       0.44320000
H        1.81390000       2.70900000       2.30450000
