17
Properties=species:S:1:pos:R:3 gdb_43012=T pbc="F F F"
O       -0.01860000       0.08430000       0.78740000
C       -0.04430000       1.20050000       0.32860000
C       -1.29830000       1.97580000      -0.02820000
C       -2.20440000       2.47830000       1.03140000
N       -1.31750000       3.40920000       0.31840000
C       -0.10560000       3.81310000       1.06250000
C        1.12060000       3.35290000       0.29800000
C        2.09240000       2.39200000       0.92460000
N        1.09500000       1.93310000      -0.02290000
H       -1.70520000       1.73660000      -1.00840000
H       -3.26480000       2.59010000       0.82620000
H       -1.96320000       2.23290000       2.06380000
H       -0.11850000       4.89930000       1.18510000
H       -0.08240000       3.36580000       2.06910000
H        1.46990000       3.99700000      -0.50570000
H        3.12060000       2.36220000       0.57620000
H        1.94980000       2.12300000       1.96820000
