15
Properties=species:S:1:pos:R:3 gdb_32028=T pbc="F F F"
C       -0.10570000       1.48850000       0.03120000
N       -0.05670000       0.03890000      -0.06890000
C       -1.14940000      -0.75670000      -0.01760000
C       -1.14170000      -2.13590000       0.03890000
N       -2.29770000      -2.83040000       0.05690000
C       -3.44030000      -2.20150000       0.01980000
C       -3.57030000      -0.76480000      -0.03820000
O       -4.54870000      -0.07470000      -0.07550000
O       -2.30450000      -0.08980000      -0.04610000
H        0.87520000       1.88500000      -0.23600000
H       -0.84700000       1.88780000      -0.66310000
H       -0.36330000       1.82970000       1.04160000
H        0.82890000      -0.41780000       0.06980000
H       -0.20920000      -2.68680000       0.06690000
H       -4.36390000      -2.77030000       0.03530000
