16
Properties=species:S:1:pos:R:3 gdb_125029=T pbc="F F F"
C       -0.00660000       1.54270000       0.03480000
C       -0.02490000       0.04190000       0.01770000
C       -1.18550000      -0.69360000       0.05130000
N       -2.43310000      -0.11290000       0.14620000
C       -1.10620000      -2.12900000       0.03840000
N        0.01330000      -2.78510000      -0.00510000
N        1.12600000      -2.05160000      -0.03620000
C        1.24590000      -0.65310000      -0.02770000
O        2.35830000      -0.14450000      -0.06120000
H        1.02820000       1.88610000       0.00580000
H       -0.53300000       1.96950000      -0.83020000
H       -0.48380000       1.94420000       0.93770000
H       -2.50660000       0.85500000      -0.12470000
H       -3.22000000      -0.67340000      -0.14110000
H       -2.00920000      -2.73110000       0.06940000
H        1.99220000      -2.57160000      -0.06880000
