18
Properties=species:S:1:pos:R:3 gdb_86014=T pbc="F F F"
C        0.01410000       1.50480000      -0.03430000
C        0.01010000      -0.03740000      -0.00620000
C        0.77630000      -0.68010000      -1.20670000
C        1.56070000      -1.88780000      -0.63080000
O        2.84010000      -2.07470000      -1.21310000
C        1.58230000      -1.59950000       0.85300000
C        0.75780000      -0.61440000       1.19410000
C       -1.38630000      -0.50740000       0.02510000
N       -2.48420000      -0.86930000       0.05580000
H        1.04600000       1.86680000      -0.01670000
H       -0.47360000       1.87890000      -0.93870000
H       -0.51360000       1.91520000       0.83110000
H        0.11830000      -0.94730000      -2.03480000
H        1.50200000       0.04950000      -1.58200000
H        1.03590000      -2.83010000      -0.82890000
H        3.37970000      -1.30820000      -0.98810000
H        2.19990000      -2.17460000       1.53380000
H        0.56860000      -0.24870000       2.19700000
