25
Properties=species:S:1:pos:R:3 gdb_100083=T pbc="F F F"
C        0.28940000       1.47090000       0.02540000
C       -0.06010000      -0.02150000       0.02440000
C       -1.56820000      -0.38850000       0.09790000
C       -2.18640000       0.14260000       1.40580000
C       -2.31900000       0.18890000      -1.11770000
C       -1.62960000      -1.93450000       0.07360000
C       -2.98520000      -2.62970000       0.15870000
C       -2.92440000      -4.14960000       0.22140000
O       -4.04760000      -2.04890000       0.17820000
H        1.37480000       1.60280000      -0.02880000
H       -0.14540000       1.99540000      -0.83060000
H       -0.05410000       1.97260000       0.93490000
H        0.36080000      -0.47900000      -0.88150000
H        0.45300000      -0.50130000       0.86930000
H       -2.14470000       1.23500000       1.44640000
H       -3.23290000      -0.15560000       1.48720000
H       -1.64830000      -0.24220000       2.28060000
H       -1.86900000      -0.15500000      -2.05700000
H       -3.36570000      -0.11790000      -1.10520000
H       -2.28750000       1.28240000      -1.11680000
H       -1.14990000      -2.30730000      -0.84420000
H       -1.01360000      -2.34300000       0.88830000
H       -2.43550000      -4.46740000       1.14960000
H       -3.93430000      -4.55980000       0.18610000
H       -2.32860000      -4.55260000      -0.60460000
