23
Properties=species:S:1:pos:R:3 gdb_87136=T pbc="F F F"
C        0.12550000       1.12050000      -0.63970000
C        0.60220000      -0.22910000      -0.14810000
C        1.93710000      -0.41360000       0.53210000
C        0.65990000      -0.62200000       1.31730000
C        0.32670000       0.39110000       2.40220000
C        0.19030000      -2.01860000       1.66380000
C       -1.30930000      -2.24030000       1.59730000
C        1.07490000      -3.19160000       1.56230000
O        0.80910000      -2.59430000       2.83110000
H        0.44720000       1.93420000       0.01580000
H        0.52500000       1.32890000      -1.63850000
H       -0.96770000       1.16020000      -0.70650000
H        0.32620000      -1.04850000      -0.80950000
H        2.55140000      -1.26020000       0.24940000
H        2.50810000       0.47940000       0.76830000
H        0.75170000       1.37330000       2.18400000
H       -0.75400000       0.51960000       2.52780000
H        0.73810000       0.05220000       3.35800000
H       -1.68080000      -2.08830000       0.57900000
H       -1.55950000      -3.25560000       1.91450000
H       -1.83760000      -1.54270000       2.25440000
H        0.63220000      -4.17580000       1.40590000
H        2.09800000      -3.09160000       1.20800000
