18
Properties=species:S:1:pos:R:3 gdb_76843=T pbc="F F F"
C       -0.51930000       1.41680000      -0.00520000
C       -0.06320000      -0.03320000       0.00750000
C        1.18670000      -0.43370000      -0.87090000
O        1.87040000       0.56070000      -1.57700000
C        1.89150000      -0.96650000       0.39820000
O        2.66420000       0.10850000       1.02780000
C        1.61580000       0.39150000       1.90710000
N        1.56760000       1.19520000       2.86520000
C        0.66660000      -0.59690000       1.28030000
H        0.29750000       2.10620000       0.22440000
H       -0.90810000       1.68160000      -0.99300000
H       -1.30960000       1.58420000       0.73290000
H       -0.90540000      -0.68690000      -0.23770000
H        0.94380000      -1.22930000      -1.58120000
H        2.40490000       1.04250000      -0.93230000
H        2.44230000      -1.90620000       0.40330000
H        2.44820000       1.70050000       2.97890000
H        0.12600000      -1.27270000       1.93820000
