18
Properties=species:S:1:pos:R:3 gdb_81097=T pbc="F F F"
C       -0.07810000       1.57330000       0.06680000
N       -0.13570000       0.10820000      -0.00500000
C       -1.20030000      -0.65820000       0.76260000
C       -0.30950000      -1.90840000       0.51130000
C        0.61550000      -0.74980000       1.00730000
C        2.09870000      -0.74660000       1.13930000
O        2.66390000      -0.76390000       2.20640000
C       -0.45770000      -0.50730000       2.12030000
O       -0.54360000       0.71340000       2.79610000
H       -0.18380000       2.01130000       1.06110000
H        0.87340000       1.89470000      -0.37090000
H       -0.87390000       1.96120000      -0.57850000
H       -2.26310000      -0.53540000       0.55100000
H       -0.42900000      -2.76710000       1.17260000
H       -0.18120000      -2.16810000      -0.53680000
H        2.66010000      -0.72350000       0.17920000
H       -0.58960000      -1.34880000       2.81490000
H        0.14950000       0.72350000       3.46550000
