15
Properties=species:S:1:pos:R:3 gdb_37002=T pbc="F F F"
N        0.19260000       1.36910000      -0.40660000
C        1.25320000       1.70070000       0.25800000
C        1.66540000       0.88920000       1.54240000
C        0.84000000      -0.33900000       1.25560000
C       -0.04220000       0.07310000       0.06390000
C        1.34770000      -0.76190000      -0.10210000
C        2.59840000       0.00360000      -0.38540000
C        3.01610000       0.82230000       0.78660000
N        2.53590000       1.65590000      -0.35100000
H        1.62060000       1.36250000       2.51920000
H        0.48410000      -1.02840000       2.00940000
H       -0.96220000      -0.44590000      -0.18090000
H        1.24490000      -1.76690000      -0.48790000
H        3.28210000      -0.30770000      -1.16250000
H        4.01720000       0.92850000       1.19190000
