18
Properties=species:S:1:pos:R:3 gdb_73767=T pbc="F F F"
C        0.01460000       1.54340000      -0.03660000
C       -0.01530000       0.04840000       0.03400000
C       -1.10420000      -0.76930000       0.05940000
N       -2.41710000      -0.40310000       0.10680000
C       -0.72820000      -2.21740000       0.04090000
C        0.00250000      -2.67130000      -1.20860000
C        0.77440000      -2.23020000       0.01680000
C        1.20310000      -0.76840000       0.04660000
O        2.35320000      -0.37460000       0.06940000
H        1.04720000       1.86880000      -0.19030000
H       -0.59330000       1.93880000      -0.86180000
H       -0.34590000       2.01340000       0.88740000
H       -2.65100000       0.55650000      -0.09500000
H       -3.10980000      -1.07830000      -0.17380000
H       -1.31050000      -2.92910000       0.61540000
H       -0.00060000      -3.73380000      -1.43260000
H       -0.01430000      -2.01930000      -2.07560000
H        1.36350000      -2.95870000       0.55850000
