20
Properties=species:S:1:pos:R:3 gdb_68455=T pbc="F F F"
C       -0.07660000       1.52060000       0.12300000
C        0.01730000       0.01310000       0.01300000
C        1.10560000      -0.64350000      -0.90870000
C        1.10600000      -1.83650000       0.09300000
C        0.63980000      -0.83430000       1.17470000
N        0.04400000      -2.80520000      -0.17050000
C       -1.28660000      -2.18690000      -0.30860000
C       -1.30070000      -0.64880000      -0.35480000
O       -2.30640000      -0.03970000      -0.63210000
H        0.90210000       1.94910000       0.36110000
H       -0.43130000       1.95950000      -0.81390000
H       -0.78300000       1.81530000       0.90530000
H        0.85070000      -0.84980000      -1.95310000
H        2.03160000      -0.06140000      -0.87040000
H        2.04390000      -2.37310000       0.25220000
H        1.48370000      -0.30190000       1.62010000
H       -0.01500000      -1.20620000       1.96710000
H        0.26900000      -3.31250000      -1.01870000
H       -1.80660000      -2.55360000      -1.19830000
H       -1.92530000      -2.46320000       0.54330000
