19
Properties=species:S:1:pos:R:3 gdb_41711=T pbc="F F F"
C       -0.01080000       1.44890000      -0.09680000
O        0.97180000       1.94180000       0.81570000
C        2.05460000       1.01640000       0.86970000
C        1.43160000      -0.33740000       0.62210000
C        2.11020000      -1.62820000       0.34470000
C        1.36740000      -2.66270000       0.74840000
C        0.08040000      -2.21620000       1.41790000
C        0.11930000      -0.68910000       1.31280000
C        0.09590000      -0.06410000      -0.05660000
H       -0.97680000       1.84820000       0.23220000
H        0.18080000       1.80890000      -1.12070000
H        2.81420000       1.23810000       0.10020000
H        2.52270000       1.12730000       1.85390000
H        3.06820000      -1.69580000      -0.15870000
H        1.61420000      -3.70750000       0.59840000
H       -0.80350000      -2.65030000       0.93170000
H        0.04100000      -2.54160000       2.46580000
H       -0.23640000      -0.09090000       2.14540000
H       -0.21380000      -0.64070000      -0.92200000
