16
Properties=species:S:1:pos:R:3 gdb_43541=T pbc="F F F"
O        0.04230000       0.15890000      -0.92790000
C       -0.01830000       1.19150000      -0.32510000
C       -1.14950000       1.94320000       0.40870000
C       -0.13710000       3.12310000       0.65510000
C        0.08260000       3.50700000       2.03950000
N        0.28400000       3.80530000       3.13850000
C        0.97650000       2.26600000      -0.00230000
C        2.39320000       2.02730000       0.47700000
C        2.16010000       2.69710000      -0.83660000
H       -2.02100000       2.19300000      -0.19970000
H       -1.48040000       1.44010000       1.32020000
H       -0.38810000       4.01270000       0.07170000
H        2.72320000       2.62820000       1.31780000
H        2.72800000       0.99580000       0.48320000
H        2.33240000       2.13240000      -1.74680000
H        2.34310000       3.76370000      -0.91190000
