17
Properties=species:S:1:pos:R:3 gdb_17396=T pbc="F F F"
C        0.03640000       1.51230000      -0.17260000
O        1.42330000       1.55580000       0.23760000
C        1.42990000       0.14170000       0.50900000
C        0.00260000      -0.01900000      -0.04590000
C       -1.08660000      -0.83430000       0.72570000
C       -1.29660000      -1.67530000      -0.53820000
N       -1.68540000      -0.71830000      -1.60330000
C       -0.25090000      -0.90770000      -1.26500000
H       -0.61290000       2.05120000       0.52990000
H       -0.11530000       1.91300000      -1.18120000
H        2.22730000      -0.38230000      -0.03480000
H        1.53260000      -0.07320000       1.58220000
H       -0.65310000      -1.40140000       1.55420000
H       -1.96140000      -0.27950000       1.07530000
H       -1.57080000      -2.72050000      -0.60610000
H       -1.86540000      -1.26500000      -2.44560000
H        0.46500000      -1.21740000      -2.01780000
