14
Properties=species:S:1:pos:R:3 gdb_616=T pbc="F F F"
C        0.08480000       1.48440000      -0.20720000
C        0.00120000       0.02300000       0.15480000
O        1.22000000      -0.72920000       0.18050000
C        0.48380000      -0.58110000       1.40850000
C        1.21180000       0.14970000       2.50880000
O        2.26790000      -0.64450000       3.02420000
H        0.92080000       1.98320000       0.28570000
H        0.21710000       1.59270000      -1.28870000
H       -0.84270000       1.99770000       0.06850000
H       -0.81610000      -0.50760000      -0.33910000
H        0.00550000      -1.50530000       1.73920000
H        1.58080000       1.12060000       2.15210000
H        0.53050000       0.33640000       3.34640000
H        2.82830000      -0.87530000       2.27430000
