16
Properties=species:S:1:pos:R:3 gdb_98817=T pbc="F F F"
C       -0.43080000       1.34210000      -0.07730000
O       -0.24960000      -0.06330000      -0.29800000
C        0.61550000      -0.38560000      -1.27870000
O        1.18970000       0.40540000      -1.97580000
C        0.76670000      -1.89640000      -1.32350000
N        1.63210000      -2.43440000      -2.38540000
C        2.44650000      -3.24970000      -1.45040000
C        1.74790000      -2.52890000      -0.28970000
O        1.88870000      -2.46000000       0.88900000
H       -0.82690000       1.82350000      -0.97490000
H       -1.13980000       1.42390000       0.74620000
H        0.51850000       1.81480000       0.18630000
H       -0.22710000      -2.35400000      -1.21770000
H        1.14750000      -2.95720000      -3.10310000
H        2.24080000      -4.32960000      -1.44010000
H        3.52820000      -3.09760000      -1.53360000
