18
Properties=species:S:1:pos:R:3 gdb_94359=T pbc="F F F"
O        0.14040000       1.25450000      -0.46150000
C        0.12150000      -0.02240000       0.12000000
C       -0.12160000      -0.16400000       1.65640000
C       -1.14420000      -1.30240000       1.36060000
C       -1.18140000      -0.78960000      -0.08510000
C       -2.38150000      -0.28380000      -0.82280000
N       -1.62790000      -1.43000000      -1.29730000
C       -2.14280000      -2.70900000      -1.40610000
O       -3.25100000      -2.98090000      -1.79890000
H        1.04270000       1.58680000      -0.45600000
H        0.97980000      -0.62920000      -0.20210000
H        0.73690000      -0.40820000       2.28430000
H       -0.61430000       0.73290000       2.03840000
H       -0.69200000      -2.29470000       1.44220000
H       -2.08450000      -1.29580000       1.91450000
H       -3.36520000      -0.48320000      -0.40460000
H       -2.28900000       0.61940000      -1.41740000
H       -1.38530000      -3.47630000      -1.15310000
