21
Properties=species:S:1:pos:R:3 gdb_115884=T pbc="F F F"
C       -0.01470000       1.36060000      -0.14100000
O       -0.06580000       0.00640000       0.24410000
C       -1.34010000      -0.58310000       0.10700000
C       -1.79120000      -0.85270000      -1.34960000
C       -2.72280000      -2.08340000      -1.25750000
C       -2.18850000      -2.83950000      -0.05490000
O       -0.75990000      -2.96980000      -0.06930000
C       -1.34970000      -1.95590000       0.76680000
C       -1.10730000      -2.07740000       2.24390000
H        0.99220000       1.72260000       0.08070000
H       -0.20780000       1.49720000      -1.21510000
H       -0.74230000       1.96970000       0.41960000
H       -2.09020000       0.04440000       0.62390000
H       -2.27850000       0.00790000      -1.81290000
H       -0.89990000      -1.09860000      -1.93140000
H       -3.76200000      -1.78890000      -1.06580000
H       -2.71690000      -2.68540000      -2.17150000
H       -2.73110000      -3.68330000       0.36580000
H       -0.11820000      -1.68090000       2.49260000
H       -1.85080000      -1.50480000       2.80900000
H       -1.15400000      -3.12280000       2.55770000
