16
Properties=species:S:1:pos:R:3 gdb_49577=T pbc="F F F"
O        0.10800000      -0.16770000       0.04910000
C        0.01810000       1.03030000      -0.03530000
C        1.21390000       1.95480000       0.00390000
C        1.43430000       2.88170000      -1.20730000
C        0.35870000       3.92920000      -1.31930000
C        1.45130000       4.11990000      -0.31240000
C        1.19230000       3.24430000       0.92930000
C       -0.01420000       3.52770000       1.69810000
N       -0.98430000       3.75020000       2.28670000
H       -0.96780000       1.52290000      -0.17250000
H        2.09500000       1.35180000       0.22750000
H        2.08160000       2.63370000      -2.03830000
H        0.43780000       4.55930000      -2.19870000
H       -0.66280000       3.74600000      -1.00080000
H        2.11850000       4.97130000      -0.31930000
H        2.04580000       3.21750000       1.60920000
