19
Properties=species:S:1:pos:R:3 gdb_69655=T pbc="F F F"
C        0.25090000       1.54750000       0.05780000
C       -0.04810000       0.08580000       0.11550000
C       -1.40010000      -0.63370000      -0.04900000
C       -0.86780000      -1.73430000       0.92920000
C       -1.60520000      -2.04390000       2.24910000
C       -1.56790000      -3.50280000       1.75300000
O       -0.90090000      -3.11260000       0.53450000
C        0.47430000      -0.99970000       0.97410000
O        0.93030000      -0.83960000      -0.37600000
H        1.28320000       1.73880000       0.36260000
H        0.11990000       1.92980000      -0.96090000
H       -0.42160000       2.10860000       0.71480000
H       -2.26280000      -0.09460000       0.35220000
H       -1.60620000      -0.97570000      -1.06540000
H       -1.03800000      -1.83880000       3.15980000
H       -2.59930000      -1.60250000       2.33850000
H       -0.95840000      -4.19100000       2.35040000
H       -2.54030000      -3.96900000       1.55590000
H        1.22720000      -1.00210000       1.75640000
