16
Properties=species:S:1:pos:R:3 gdb_36066=T pbc="F F F"
C       -0.10390000      -1.19570000      -0.21630000
C       -0.05810000      -0.00580000      -0.05640000
C        0.02700000       1.43930000       0.14960000
C        1.43410000       1.95860000       0.09340000
C        1.93950000       3.39500000      -0.11740000
C        3.19990000       3.04740000       0.71220000
C        2.71570000       1.65720000       0.91830000
N        3.60200000       1.96870000      -0.25940000
C        2.34180000       2.28800000      -1.06310000
H       -0.15110000      -2.24630000      -0.36290000
H       -0.57180000       1.95740000      -0.61180000
H       -0.42870000       1.69670000       1.11590000
H        1.37270000       4.30110000      -0.27880000
H        3.92770000       3.64570000       1.24710000
H        2.96870000       0.89810000       1.64880000
H        2.23980000       2.16140000      -2.13380000
