20
Properties=species:S:1:pos:R:3 gdb_40676=T pbc="F F F"
C       -0.26150000       0.85800000      -0.49440000
C        0.99060000       1.18730000       0.23860000
N        0.46700000      -0.17690000       0.23090000
C       -0.05070000      -0.70170000       1.46920000
C       -1.24130000      -0.15500000       2.24500000
C       -1.33300000      -1.46060000       1.50300000
C       -2.24000000      -1.82590000       0.33090000
O       -2.45360000      -3.14430000       0.88310000
C       -1.61670000      -2.86390000       2.02650000
H       -1.19060000       1.24530000      -0.08370000
H       -0.25780000       0.75090000      -1.57540000
H        1.92370000       1.33750000      -0.29670000
H        0.88400000       1.76410000       1.15530000
H        0.75540000      -1.10360000       2.07930000
H       -1.18960000      -0.17720000       3.32960000
H       -1.80490000       0.68370000       1.84880000
H       -3.17690000      -1.25860000       0.24940000
H       -1.75280000      -1.86600000      -0.65120000
H       -0.75380000      -3.54100000       2.08190000
H       -2.17830000      -2.91750000       2.96910000
