22
Properties=species:S:1:pos:R:3 gdb_96446=T pbc="F F F"
C        0.47720000       1.63070000       0.02540000
C       -0.00590000       0.17220000      -0.05140000
C        0.48110000      -0.48160000      -1.35250000
C       -0.03610000      -1.89510000      -1.62570000
O        0.63720000      -2.90330000      -0.89530000
C        0.18590000      -3.11690000       0.41580000
C        0.48740000      -2.02590000       1.42970000
N        1.70900000      -1.22570000       1.27930000
C        0.39630000      -0.55630000       1.22240000
H        1.57120000       1.67020000       0.06600000
H        0.15120000       2.20210000      -0.84950000
H        0.08960000       2.13480000       0.91730000
H       -1.10700000       0.18350000      -0.07090000
H        0.16830000       0.15800000      -2.18820000
H        1.57550000      -0.51490000      -1.36190000
H       -1.12400000      -1.95340000      -1.44660000
H        0.13510000      -2.14140000      -2.67940000
H       -0.90320000      -3.30670000       0.42930000
H        0.67920000      -4.03870000       0.74700000
H        0.23090000      -2.35800000       2.43810000
H        2.16110000      -1.07400000       2.17580000
H        0.10140000      -0.00230000       2.11550000
