19
Properties=species:S:1:pos:R:3 gdb_17350=T pbc="F F F"
C       -0.26340000       1.40450000      -0.04780000
C        0.04130000      -0.06660000       0.11640000
C        1.39450000      -0.61810000      -0.18220000
N        0.90300000      -0.57010000       1.19270000
C        1.53360000       0.33230000       2.11920000
C        0.79420000       0.61180000       3.41510000
C        1.96730000      -0.33900000       3.40220000
O        1.75490000      -1.70660000       3.52690000
H        0.62520000       2.02610000       0.08650000
H       -0.65690000       1.59440000      -1.05200000
H       -1.01850000       1.73300000       0.67380000
H       -0.81160000      -0.71830000      -0.06850000
H        1.51730000      -1.60750000      -0.61450000
H        2.16800000       0.09650000      -0.46030000
H        2.15800000       1.12500000       1.70840000
H        0.90610000       1.59310000       3.86380000
H       -0.18700000       0.16260000       3.52470000
H        2.89630000      -0.02330000       3.86700000
H        1.27240000      -1.95700000       2.72220000
