19
Properties=species:S:1:pos:R:3 gdb_42017=T pbc="F F F"
C        0.05670000       1.44750000      -0.36680000
O        1.30150000       1.90980000       0.16110000
C        1.94600000       0.85280000       0.86520000
C        3.41770000       0.65640000       0.40770000
O        3.67150000      -0.66450000      -0.04880000
C        3.24550000      -1.63590000       0.88840000
C        1.69570000      -1.71790000       0.94950000
C        1.14020000      -0.38470000       0.55590000
C        0.07160000      -0.04070000      -0.15440000
H       -0.78250000       1.94070000       0.15220000
H       -0.01150000       1.72570000      -1.42840000
H        1.93120000       1.08130000       1.94520000
H        3.61060000       1.32490000      -0.43420000
H        4.11200000       0.90370000       1.22660000
H        3.67440000      -2.58910000       0.56950000
H        3.65460000      -1.40080000       1.88510000
H        1.31900000      -2.49290000       0.27550000
H        1.38590000      -1.99930000       1.96510000
H       -0.68390000      -0.70520000      -0.55530000
