17
Properties=species:S:1:pos:R:3 gdb_75779=T pbc="F F F"
C       -0.00100000       1.42130000       0.01770000
N        0.08220000      -0.01840000      -0.01530000
C        0.01870000      -0.92200000      -1.05250000
O       -0.02750000      -0.77450000      -2.24270000
C        0.03260000      -2.11270000      -0.06980000
C        0.09790000      -1.02460000       1.05980000
C        1.35630000      -1.02320000       1.93090000
C       -1.11290000      -0.96480000       1.89510000
N       -2.05900000      -0.89260000       2.55520000
H        0.89170000       1.86910000       0.46840000
H       -0.08330000       1.76390000      -1.01620000
H       -0.88490000       1.75270000       0.57460000
H       -0.87470000      -2.71730000      -0.08150000
H        0.91310000      -2.75440000      -0.12780000
H        2.24150000      -1.07790000       1.29170000
H        1.41460000      -0.11470000       2.53680000
H        1.35200000      -1.88160000       2.60810000
