22
Properties=species:S:1:pos:R:3 gdb_6547=T pbc="F F F"
C       -0.07340000       1.55920000       0.24940000
C       -0.01460000       0.03010000       0.07940000
C        0.63050000      -0.59950000       1.33110000
C       -1.45400000      -0.50110000      -0.07640000
C        0.78520000      -0.42550000      -1.15070000
C        1.06900000       0.43470000      -2.36840000
C        2.19580000      -0.02180000      -1.47320000
O        2.83860000       0.89380000      -0.62810000
H        0.92590000       1.99090000       0.32110000
H       -0.59860000       2.03450000      -0.58600000
H       -0.62490000       1.80720000       1.16300000
H        0.03950000      -0.37880000       2.22710000
H        0.69420000      -1.68930000       1.23470000
H        1.64230000      -0.21330000       1.48050000
H       -1.92550000      -0.10300000      -0.98130000
H       -1.47070000      -1.59480000      -0.14210000
H       -2.07030000      -0.20950000       0.78120000
H        0.58970000      -1.47120000      -1.38160000
H        0.96950000       0.00590000      -3.36010000
H        0.80820000       1.48520000      -2.30320000
H        2.85360000      -0.80410000      -1.85310000
H        3.38600000       1.46750000      -1.17430000
