17
Properties=species:S:1:pos:R:3 gdb_37484=T pbc="F F F"
C        0.04280000       1.37000000       0.06350000
C        1.46730000       1.89430000       0.00290000
O        2.06460000       1.57880000      -1.25620000
C        1.93600000       0.23450000      -1.62720000
C        2.91430000      -0.81920000      -1.08880000
O        2.69070000      -0.95890000       0.31720000
C        1.80080000      -1.64180000      -0.56610000
C        0.74830000      -0.61900000      -1.01520000
O        0.00990000      -0.05250000       0.03800000
H       -0.43660000       1.66480000       1.00150000
H       -0.53840000       1.79090000      -0.77280000
H        1.47420000       2.98640000       0.07050000
H        2.05350000       1.47520000       0.82890000
H        1.90450000       0.20210000      -2.72100000
H        3.88500000      -1.11450000      -1.47080000
H        1.71270000      -2.71560000      -0.45750000
H        0.07830000      -1.00260000      -1.79630000
