16
Properties=species:S:1:pos:R:3 gdb_46428=T pbc="F F F"
O        0.56840000       0.87060000      -1.32260000
C        0.41270000       1.68760000      -0.47290000
O       -0.74570000       2.32350000      -0.11530000
C       -0.08120000       3.02590000       0.98670000
C        1.26670000       2.39710000       0.59220000
N        1.85180000       1.48960000       1.56440000
C        3.00810000       0.74610000       1.03520000
C        4.17080000       1.58060000       0.71030000
C        5.09900000       2.30770000       0.47260000
H       -0.17420000       4.10670000       0.86870000
H       -0.47660000       2.69280000       1.94800000
H        1.97680000       3.10980000       0.14560000
H        2.15310000       2.02480000       2.37420000
H        3.29050000      -0.00740000       1.77850000
H        2.67740000       0.20280000       0.14400000
H        5.92960000       2.93150000       0.25100000
