16
Properties=species:S:1:pos:R:3 gdb_84464=T pbc="F F F"
C       -0.03370000       1.59580000       0.06940000
C        0.01820000       0.06180000      -0.01370000
C        0.80310000      -0.46200000      -1.20450000
C        1.77570000      -1.30840000      -0.86230000
C        1.82310000      -1.44360000       0.62800000
O        2.11080000      -0.19820000       1.31100000
C        0.74460000      -0.58220000       1.16770000
C        2.30160000      -2.64160000       1.26910000
N        2.68670000      -3.61890000       1.75130000
H        0.97530000       2.00170000       0.17600000
H       -0.48520000       2.01820000      -0.83290000
H       -0.63020000       1.91960000       0.92750000
H       -1.00930000      -0.32640000      -0.04760000
H        0.59820000      -0.12620000      -2.21510000
H        2.46860000      -1.81330000      -1.52160000
H        0.22560000      -0.80670000       2.09530000
