16
Properties=species:S:1:pos:R:3 gdb_11837=T pbc="F F F"
O        0.13460000       1.32790000      -0.15380000
C        0.10740000      -0.06550000      -0.00040000
C        0.25120000      -0.50600000       1.49080000
C       -1.26070000      -0.72430000       1.53020000
C       -2.19150000      -1.29940000       2.49690000
O       -2.12470000       0.12560000       2.28570000
C       -1.37030000      -0.60910000       0.00310000
O       -2.34120000       0.29980000      -0.45020000
H       -0.71760000       1.56160000      -0.55250000
H        0.79130000      -0.55480000      -0.70470000
H        0.82460000      -1.42730000       1.62590000
H        0.62980000       0.27140000       2.15630000
H       -3.10630000      -1.77780000       2.15040000
H       -1.82970000      -1.63150000       3.46850000
H       -1.48230000      -1.56610000      -0.51720000
H       -2.73370000       0.67980000       0.35180000
