14
Properties=species:S:1:pos:R:3 gdb_66541=T pbc="F F F"
O        0.21520000       1.38070000       0.20720000
C        0.07630000       0.03480000       0.05420000
C        0.89120000      -0.98610000      -0.76400000
C        0.82120000      -1.05610000       0.75320000
N       -0.37260000      -2.01110000       0.70720000
C       -0.33800000      -1.92090000      -0.77190000
C       -1.16540000      -0.91480000      -0.01410000
C       -2.62840000      -0.81040000       0.09630000
O       -3.37060000      -1.76060000       0.01640000
H        0.06160000       1.81400000      -0.64110000
H        1.72880000      -0.83570000      -1.42920000
H        1.57710000      -1.05310000       1.52670000
H       -0.68970000      -2.71720000      -1.41740000
H       -3.01550000       0.22180000       0.24240000
