13
Properties=species:S:1:pos:R:3 gdb_44980=T pbc="F F F"
N       -0.17440000       1.15990000      -0.52230000
C       -0.05010000       0.04030000       0.01960000
O        1.11730000      -0.62890000       0.30550000
C        0.82210000      -1.82570000       0.97480000
C        0.13420000      -1.72020000       2.30560000
C       -0.68480000      -1.88300000       1.03460000
O       -1.12920000      -0.68900000       0.43760000
C       -1.48900000      -3.03880000       0.76740000
N       -2.11360000      -3.99330000       0.58170000
H        0.73230000       1.55520000      -0.75620000
H        1.46190000      -2.65370000       0.70150000
H        0.19590000      -2.58670000       2.95400000
H        0.08200000      -0.75560000       2.79850000
