17
Properties=species:S:1:pos:R:3 gdb_73974=T pbc="F F F"
C       -0.11250000       1.44550000       0.00490000
C       -0.05770000      -0.04180000       0.09680000
C       -1.00210000      -0.94680000       0.33590000
C       -2.39240000      -1.38850000      -0.07980000
O       -2.23230000      -1.69360000      -1.48020000
C       -1.84070000      -2.69100000      -0.54030000
C       -0.46930000      -2.33260000       0.11940000
O        0.77740000      -2.18660000      -0.52100000
C        1.20590000      -0.83920000      -0.24840000
H        0.55580000       1.91650000       0.73710000
H        0.21560000       1.78770000      -0.98450000
H       -1.12340000       1.82010000       0.18230000
H       -3.38190000      -1.12510000       0.26930000
H       -2.31510000      -3.66260000      -0.61710000
H       -0.38420000      -2.93550000       1.03980000
H        1.68770000      -0.43660000      -1.14900000
H        1.95590000      -0.83400000       0.56000000
