15
Properties=species:S:1:pos:R:3 gdb_50129=T pbc="F F F"
O       -0.01130000       0.08050000      -0.37450000
C        0.02700000       1.26380000      -0.12440000
N        1.14980000       1.92260000       0.28160000
C        2.54660000       1.47210000       0.15830000
C        2.96830000       2.95490000       0.04640000
C        2.20790000       3.64210000      -1.07560000
C        1.48210000       3.33350000       0.19650000
C        4.10620000       3.52890000       0.67950000
N        5.03850000       3.98610000       1.19040000
H       -0.85530000       1.93440000      -0.15910000
H        2.91000000       0.98900000       1.06820000
H        2.74460000       0.83730000      -0.70940000
H        2.47280000       4.68380000      -1.22190000
H        1.98410000       3.08580000      -1.98110000
H        1.02950000       4.07210000       0.84600000
