18
Properties=species:S:1:pos:R:3 gdb_117010=T pbc="F F F"
C        0.37960000       1.34720000       0.14570000
C       -0.38440000       0.08560000      -0.26540000
N        0.20930000      -0.59690000      -1.40440000
C        1.00470000      -1.69900000      -1.26540000
O        1.24290000      -2.23710000      -0.19840000
C        1.54230000      -2.18930000      -2.52720000
C        2.01330000      -2.63090000      -3.54470000
C        2.56670000      -3.14480000      -4.79050000
O        3.41850000      -4.24620000      -4.51980000
H        1.40500000       1.09800000       0.43250000
H        0.41930000       2.07400000      -0.67290000
H       -0.11020000       1.82760000       0.99870000
H       -0.39270000      -0.63690000       0.55330000
H       -1.42460000       0.33080000      -0.50850000
H        0.12160000      -0.19220000      -2.32270000
H        1.73240000      -3.43050000      -5.45260000
H        3.10800000      -2.32890000      -5.29760000
H        3.75960000      -4.56180000      -5.36300000
