19
Properties=species:S:1:pos:R:3 gdb_110620=T pbc="F F F"
C       -0.38660000       1.07700000       0.12500000
O        0.53100000       0.03180000      -0.13050000
C        0.94250000      -0.62240000       1.02690000
C        0.13110000      -1.70230000       1.70620000
C       -0.58860000      -2.54690000       0.68280000
O       -0.02080000      -3.86990000       0.66340000
C        0.65910000      -2.82570000      -0.05420000
C        0.93220000      -3.00830000      -1.51130000
C        1.46460000      -2.01420000       0.94880000
H        0.05010000       1.84750000       0.77840000
H       -0.63600000       1.52910000      -0.83730000
H       -1.30540000       0.70260000       0.59850000
H        1.47350000       0.02840000       1.72760000
H       -0.03470000      -1.71820000       2.77700000
H       -1.59950000      -2.44560000       0.30660000
H        0.08300000      -3.49340000      -1.99940000
H        1.10950000      -2.03640000      -1.97990000
H        1.81760000      -3.63430000      -1.66930000
H        2.41670000      -2.30630000       1.37610000
