17
Properties=species:S:1:pos:R:3 gdb_55987=T pbc="F F F"
N        0.05890000       0.47190000       0.91600000
C        0.10030000       0.00740000      -0.36730000
O        0.95360000       0.32740000      -1.17040000
C       -1.05300000      -0.94010000      -0.71230000
C       -1.01220000      -2.24590000       0.08760000
N       -1.23240000      -2.10800000       1.56650000
C       -2.36970000      -3.07460000       1.56780000
C       -2.28220000      -3.11890000       0.03350000
O       -2.93890000      -3.59330000      -0.84130000
H        0.83870000       1.02080000       1.24070000
H       -0.55350000       0.02560000       1.58510000
H       -2.00660000      -0.43480000      -0.52220000
H       -0.98700000      -1.16730000      -1.77770000
H       -0.11210000      -2.81940000      -0.17240000
H       -0.44120000      -2.43600000       2.10830000
H       -2.16310000      -4.04670000       2.03260000
H       -3.30050000      -2.67680000       1.98500000
