16
Properties=species:S:1:pos:R:3 gdb_4968=T pbc="F F F"
C        0.01200000       1.52730000      -0.02590000
C        0.00820000       0.02340000      -0.00150000
C       -0.01520000      -0.72520000      -1.17390000
N       -0.01970000      -2.06030000      -1.20240000
C        0.00000000      -2.65210000      -0.01040000
N        0.02340000      -2.05550000       1.18170000
C        0.02750000      -0.71730000       1.19350000
C        0.05380000      -0.04650000       2.53950000
H        0.90150000       1.93780000       0.46580000
H       -0.00420000       1.90020000      -1.05360000
H       -0.85810000       1.94270000       0.49530000
H       -0.03110000      -0.22090000      -2.13950000
H       -0.00310000      -3.73970000      -0.00560000
H        0.93640000       0.59500000       2.64550000
H       -0.82250000       0.59750000       2.67830000
H        0.06720000      -0.80260000       3.32470000
