17
Properties=species:S:1:pos:R:3 gdb_123945=T pbc="F F F"
C       -0.01750000       1.50740000      -0.00780000
C        1.40290000       2.08110000       0.02720000
O        2.10390000       1.75850000       1.23500000
C        1.96850000       0.45070000       1.57890000
C        2.69470000      -0.26820000       2.50430000
N        2.14130000      -1.51400000       2.49170000
N        1.12030000      -1.64690000       1.62700000
C        1.00620000      -0.44560000       1.06280000
C        0.00460000      -0.03480000       0.02890000
H       -0.57140000       1.89450000       0.85530000
H       -0.52310000       1.86910000      -0.90890000
H        1.98060000       1.70790000      -0.83230000
H        1.39060000       3.17270000      -0.01620000
H        3.51660000      -0.00130000       3.14700000
H        2.41550000      -2.30690000       3.04450000
H       -0.98710000      -0.43710000       0.25780000
H        0.28200000      -0.42870000      -0.95770000
