16
Properties=species:S:1:pos:R:3 gdb_28897=T pbc="F F F"
C        0.06780000       1.50990000       0.00980000
C        0.06560000       0.00070000       0.00190000
C        0.05080000      -0.73280000      -1.19210000
O        0.07090000      -0.15050000      -2.42410000
C       -0.00070000      -2.12720000      -1.15170000
N       -0.02490000      -2.81490000      -0.01320000
C        0.01250000      -2.13990000       1.13250000
C        0.06460000      -0.74590000       1.18770000
O        0.09890000      -0.17750000       2.42600000
H        1.07860000       1.93690000       0.00320000
H       -0.46990000       1.91850000      -0.85320000
H       -0.45460000       1.90960000       0.88620000
H        0.22310000       0.79520000      -2.33840000
H       -0.02050000      -2.68220000      -2.08500000
H        0.00340000      -2.70510000       2.05970000
H        0.25100000       0.76900000       2.34920000
