20
Properties=species:S:1:pos:R:3 gdb_100557=T pbc="F F F"
C       -0.40080000       1.37910000      -0.19320000
C        0.26590000       0.04220000       0.14200000
N        1.00570000      -0.53100000      -0.98290000
C        2.38370000      -0.10340000      -1.15640000
C        0.32520000      -1.31830000      -1.86430000
O       -0.87360000      -1.53470000      -1.76580000
C        1.14520000      -1.94880000      -2.97850000
C        0.49690000      -2.24560000      -4.25330000
O        1.37690000      -1.12000000      -4.12810000
H        0.33000000       2.12650000      -0.51870000
H       -1.13530000       1.23980000      -0.98990000
H       -0.91640000       1.77560000       0.68720000
H        0.96950000       0.15780000       0.97420000
H       -0.49440000      -0.68410000       0.43540000
H        3.03700000      -0.53590000      -0.38710000
H        2.75790000      -0.38200000      -2.14000000
H        2.45110000       0.98800000      -1.08110000
H        2.00650000      -2.54320000      -2.67130000
H        0.87390000      -3.06110000      -4.86770000
H       -0.55710000      -2.00540000      -4.36270000
