19
Properties=species:S:1:pos:R:3 gdb_104772=T pbc="F F F"
C        0.50510000      -0.48330000       1.54620000
O       -0.00420000      -0.19960000       0.24810000
C       -1.28170000      -0.70960000      -0.02260000
C       -2.39060000       0.00140000       0.72810000
O       -2.37700000       1.38870000       0.45570000
C       -1.49200000      -1.13050000      -1.42580000
C       -1.43710000      -2.20240000      -0.32910000
C       -0.25980000      -3.10060000      -0.30610000
O       -0.29180000      -4.25320000       0.05290000
H        1.52230000      -0.08740000       1.57040000
H       -0.08150000      -0.00150000       2.33830000
H        0.53460000      -1.56320000       1.73950000
H       -3.36240000      -0.38610000       0.40750000
H       -2.30410000      -0.19650000       1.80860000
H       -1.45210000       1.66240000       0.47070000
H       -2.44930000      -0.94020000      -1.89610000
H       -0.63160000      -1.07780000      -2.08460000
H       -2.36440000      -2.67830000      -0.02710000
H        0.68370000      -2.63210000      -0.66380000
