15
Properties=species:S:1:pos:R:3 gdb_116829=T pbc="F F F"
O       -0.09960000       1.46130000       0.01110000
C        0.04920000       0.05470000       0.00220000
C       -1.37100000      -0.52870000       0.01230000
C       -1.39170000      -1.97920000       0.00490000
C       -1.39810000      -3.19120000      -0.00150000
C       -1.40730000      -4.54520000      -0.00870000
C       -1.41950000      -5.76040000      -0.01540000
C       -1.39360000      -7.19700000      -0.02360000
O       -2.37860000      -7.90110000      -0.01790000
H        0.77500000       1.86090000       0.00420000
H        0.58250000      -0.29780000      -0.89290000
H        0.59900000      -0.30730000       0.88330000
H       -1.89840000      -0.15140000       0.89750000
H       -1.91460000      -0.14230000      -0.85900000
H       -0.37230000      -7.62890000      -0.03590000
