18
Properties=species:S:1:pos:R:3 gdb_8410=T pbc="F F F"
C       -0.07000000       1.53240000       0.03310000
C       -0.08820000       0.02130000       0.08570000
C       -1.26280000      -0.65210000      -0.58780000
O        1.19560000      -0.60800000      -0.16660000
C        0.65590000      -0.68290000       1.13400000
C        1.34880000      -0.19390000       2.40330000
O        0.94810000      -1.39930000       3.09300000
C        0.37620000      -1.97520000       1.89710000
H        0.82400000       1.93220000       0.51720000
H       -0.07830000       1.87810000      -1.00620000
H       -0.95280000       1.94800000       0.53080000
H       -1.30730000      -0.37290000      -1.64590000
H       -1.18090000      -1.73970000      -0.52640000
H       -2.20500000      -0.34530000      -0.12090000
H        2.43920000      -0.10520000       2.31350000
H        0.94520000       0.70910000       2.87770000
H       -0.67480000      -2.25780000       2.03450000
H        0.94500000      -2.84160000       1.53590000
