15
Properties=species:S:1:pos:R:3 gdb_1078=T pbc="F F F"
C        0.00040000       1.55220000       0.10570000
C       -0.02260000       0.03150000      -0.06390000
N       -1.36410000      -0.52920000      -0.00880000
C       -2.14780000      -0.69220000       1.11420000
C       -3.33740000      -1.20290000       0.66510000
N       -3.31240000      -1.35770000      -0.70100000
C       -2.12060000      -0.94320000      -1.06670000
H        1.02860000       1.92220000       0.04790000
H       -0.58790000       2.03870000      -0.67740000
H       -0.41410000       1.84590000       1.07420000
H        0.40670000      -0.25030000      -1.02980000
H        0.58700000      -0.44890000       0.70890000
H       -1.78520000      -0.44150000       2.09780000
H       -4.20550000      -1.47350000       1.24700000
H       -1.73770000      -0.92180000      -2.07710000
