17
Properties=species:S:1:pos:R:3 gdb_38730=T pbc="F F F"
C       -0.00410000       1.50520000      -0.12970000
C        1.34300000       0.82230000       0.02940000
O        2.09530000       0.27490000      -1.03510000
C        1.45210000      -0.98480000      -1.23500000
C        1.72530000      -2.05050000      -0.14860000
O        1.23150000      -1.72740000       1.15220000
C       -0.00300000      -0.99050000       1.20710000
C        0.07910000       0.01920000       0.10270000
O        0.07170000      -0.68270000      -1.14630000
H       -0.28960000       2.16710000       0.68240000
H       -0.36090000       1.78630000      -1.11390000
H        1.91690000       1.02320000       0.92680000
H        1.70660000      -1.35250000      -2.23270000
H        1.26190000      -2.98020000      -0.51550000
H        2.79930000      -2.22110000      -0.02740000
H       -0.86610000      -1.65680000       1.07510000
H       -0.04120000      -0.54420000       2.20460000
