19
Properties=species:S:1:pos:R:3 gdb_108150=T pbc="F F F"
O       -0.01140000       1.40900000      -0.26980000
C       -0.04200000       0.04750000       0.13190000
C       -1.41430000      -0.53110000       0.02160000
O       -2.40630000       0.01900000       0.90470000
C       -3.15020000      -1.24710000       0.82030000
C       -4.28420000      -1.04880000      -0.17790000
C       -3.53110000      -0.65250000      -1.48090000
C       -2.08600000      -1.08270000      -1.22220000
C       -1.98880000      -1.91250000       0.04900000
H       -0.66410000       1.87100000       0.26800000
H        0.64280000      -0.49340000      -0.52920000
H        0.32070000      -0.07030000       1.16500000
H       -3.41780000      -1.61730000       1.81120000
H       -4.83760000      -1.98680000      -0.30420000
H       -4.98680000      -0.28130000       0.15820000
H       -3.94070000      -1.16200000      -2.35750000
H       -3.59780000       0.42320000      -1.66610000
H       -1.43070000      -1.32560000      -2.05160000
H       -1.55180000      -2.89310000       0.17710000
