19
Properties=species:S:1:pos:R:3 gdb_126970=T pbc="F F F"
C        0.01670000       1.51130000       0.03890000
C       -0.08210000      -0.00390000      -0.09310000
N        0.75740000      -0.47950000      -1.18870000
C        0.86300000      -1.83260000      -1.41510000
N        0.43020000      -2.72170000      -0.54360000
O        0.78180000      -3.96740000      -1.08760000
C        1.39090000      -3.76450000      -2.26310000
C        1.48800000      -2.44530000      -2.55610000
C        2.09690000      -1.76190000      -3.73680000
H        1.04970000       1.82230000       0.22040000
H       -0.33560000       2.01450000      -0.86960000
H       -0.60190000       1.86220000       0.86940000
H        0.26540000      -0.49430000       0.82120000
H       -1.13010000      -0.31280000      -0.22790000
H        0.69450000       0.07210000      -2.03260000
H        1.71120000      -4.65260000      -2.78770000
H        1.35350000      -1.19290000      -4.30980000
H        2.87860000      -1.05640000      -3.43180000
H        2.54890000      -2.48500000      -4.42060000
