19
Properties=species:S:1:pos:R:3 gdb_103036=T pbc="F F F"
O        0.04140000       1.44060000      -0.00780000
C        0.03000000       0.03560000       0.15950000
C       -1.38970000      -0.54730000       0.03590000
C       -2.19910000       0.07180000       1.08180000
C       -2.77690000       0.64900000       1.96730000
C       -2.06110000      -0.69310000      -1.38660000
C       -1.09550000      -1.87870000      -1.67470000
C       -1.59530000      -2.09230000      -0.21560000
C       -3.01640000      -1.74790000      -0.75320000
H       -0.56830000       1.80530000       0.64530000
H        0.69590000      -0.35970000      -0.60790000
H        0.44150000      -0.25780000       1.13840000
H       -3.31760000       1.13110000       2.74430000
H       -2.32390000       0.13050000      -2.05020000
H       -1.45910000      -2.60850000      -2.40140000
H       -0.04090000      -1.66600000      -1.84330000
H       -1.32360000      -2.89280000       0.47420000
H       -3.74810000      -1.38710000      -0.03020000
H       -3.45100000      -2.47380000      -1.44400000
