16
Properties=species:S:1:pos:R:3 gdb_33860=T pbc="F F F"
N        0.00410000      -1.11000000      -0.03030000
C       -0.00020000       0.04630000      -0.00380000
C        0.01820000       1.48390000       0.00740000
C        0.42420000       2.26580000      -1.22590000
C        1.29750000       2.31580000       0.00270000
C        1.08500000       3.36240000       1.07200000
C       -0.00670000       4.40480000       0.91240000
C       -0.29740000       3.11050000       1.61960000
O       -0.90950000       2.06990000       0.88500000
H        0.79630000       1.68990000      -2.06590000
H       -0.19550000       3.11230000      -1.49420000
H        2.26400000       1.82990000      -0.03630000
H        1.92470000       3.57360000       1.72180000
H        0.07760000       5.29130000       1.53220000
H       -0.44690000       4.58310000      -0.06110000
H       -0.55190000       3.08670000       2.67300000
