16
Properties=species:S:1:pos:R:3 gdb_28713=T pbc="F F F"
C       -0.00980000       1.51450000       0.03870000
C       -0.00620000       0.02780000      -0.05530000
C       -0.03320000      -0.83500000      -1.12000000
N       -0.01510000      -2.15300000      -0.70460000
C        0.02240000      -2.07320000       0.60170000
N        0.05200000      -3.17850000       1.44970000
C        0.09000000      -3.13200000       2.80930000
O        0.10380000      -2.10930000       3.47130000
N        0.03010000      -0.79530000       1.06030000
H        0.88770000       1.89930000       0.53810000
H       -0.04230000       1.94630000      -0.96440000
H       -0.87870000       1.89150000       0.59190000
H       -0.06470000      -0.58190000      -2.16880000
H        0.04250000      -4.07100000       0.97880000
H        0.10740000      -4.13990000       3.25850000
H        0.05660000      -0.56470000       2.04350000
