13
Properties=species:S:1:pos:R:3 gdb_16517=T pbc="F F F"
O        0.07660000       1.35250000       0.05680000
C       -0.00140000      -0.01510000      -0.07720000
C        0.84730000      -0.77090000      -1.13750000
N        0.47390000      -2.19520000      -0.87900000
C       -0.58190000      -2.05610000      -0.19260000
O       -0.62750000      -2.34140000       1.17750000
C       -0.67080000      -0.84160000       1.21050000
C       -1.32180000      -0.68110000      -0.08740000
H        0.96560000       1.58220000       0.35110000
H        0.63530000      -0.38460000      -2.14570000
H        1.92810000      -0.70870000      -0.96730000
H       -0.83440000      -0.39730000       2.18500000
H       -2.31240000      -0.38810000      -0.41100000
