18
Properties=species:S:1:pos:R:3 gdb_54795=T pbc="F F F"
O       -0.00760000      -0.06460000       0.17470000
C        0.12080000       1.14940000      -0.05200000
O        1.09440000       1.88400000      -0.28530000
C       -1.23990000       1.93570000       0.01890000
C       -2.22600000       1.55990000       1.14990000
C       -1.36880000       1.65470000       2.41670000
C       -0.61230000       2.99240000       2.10080000
C       -1.23890000       3.30540000       0.73770000
N       -2.74300000       3.03040000       1.05490000
H       -3.33630000       3.17340000       0.23980000
H       -3.15690000       3.46050000       1.88560000
H       -1.73210000       1.98320000      -0.95860000
H       -2.99600000       0.79720000       1.06880000
H       -1.96190000       1.69750000       3.33480000
H       -0.70850000       0.78900000       2.44630000
H       -0.78650000       3.77590000       2.84410000
H        0.45850000       2.85270000       1.95900000
H       -1.03950000       4.25690000       0.25190000
