18
Properties=species:S:1:pos:R:3 gdb_65899=T pbc="F F F"
C       -0.12310000       1.57430000       0.12990000
C       -0.03340000       0.04470000       0.07310000
C        1.04750000      -0.46910000      -0.95100000
C        1.99390000      -0.74820000       0.24850000
C        0.79510000      -0.59400000       1.22260000
C       -1.39450000      -0.56590000      -0.14740000
O       -1.93770000      -1.36730000       0.57080000
C       -2.06890000      -0.13620000      -1.40050000
N       -2.58360000       0.20090000      -2.37980000
H        0.87900000       2.00040000       0.23560000
H       -0.56830000       1.98560000      -0.78150000
H       -0.72130000       1.90260000       0.98620000
H        0.74020000      -1.38320000      -1.46600000
H        1.37270000       0.25790000      -1.69810000
H        2.50220000      -1.71390000       0.24760000
H        2.74500000       0.03480000       0.37570000
H        0.94420000       0.03180000       2.10510000
H        0.36980000      -1.54820000       1.53840000
