18
Properties=species:S:1:pos:R:3 gdb_72638=T pbc="F F F"
C        0.00350000       1.89460000       0.28720000
C       -0.12290000       0.48390000       0.68890000
N        0.57450000      -1.38700000      -1.43260000
H       -0.33700000      -1.83370000      -1.38080000
H        1.07820000      -1.86070000      -2.17590000
C        1.28570000      -1.56800000      -0.16620000
C        0.63350000      -0.77040000       0.95620000
O        1.41430000      -0.79700000       2.13460000
C       -0.83910000      -0.55460000       1.05230000
C       -2.15260000      -1.10550000       1.34470000
O       -2.35510000      -2.25580000       1.66590000
H        0.70570000       2.41280000       0.94970000
H        0.42000000       1.94360000      -0.72520000
H       -0.95530000       2.41900000       0.30330000
H        1.37360000      -2.62000000       0.16090000
H        2.30910000      -1.19480000      -0.28850000
H        1.29430000      -1.65800000       2.55030000
H       -2.98740000      -0.37800000       1.24920000
