23
Properties=species:S:1:pos:R:3 gdb_106326=T pbc="F F F"
C       -0.41080000       1.68550000       0.84740000
O       -0.35290000       0.27170000       0.91100000
C       -1.57950000      -0.33400000       0.71710000
C       -2.61610000      -0.51760000       1.84040000
C       -2.79290000      -2.00940000       1.38510000
C       -4.18240000      -2.58950000       1.14170000
C       -1.82450000      -1.75130000       0.21730000
C       -2.17010000      -0.54480000      -0.64850000
C       -3.53250000      -0.09610000      -1.13970000
H        0.60390000       2.05620000       1.00970000
H       -0.76790000       2.03010000      -0.13360000
H       -1.06900000       2.10220000       1.62350000
H       -2.16840000      -0.43160000       2.83280000
H       -3.50540000       0.11950000       1.79970000
H       -2.27800000      -2.64630000       2.11250000
H       -4.77070000      -1.99230000       0.44130000
H       -4.11030000      -3.60310000       0.73130000
H       -4.74500000      -2.65340000       2.08010000
H       -1.09680000      -2.47260000      -0.13840000
H       -1.39130000      -0.42590000      -1.40140000
H       -4.26180000       0.00090000      -0.33260000
H       -3.45560000       0.88410000      -1.62390000
H       -3.94300000      -0.79570000      -1.87650000
