18
Properties=species:S:1:pos:R:3 gdb_76963=T pbc="F F F"
C       -0.08640000       1.68260000       0.09090000
C        0.17500000       0.19810000       0.09690000
C        0.55920000      -0.55860000      -1.17370000
N        1.51020000      -0.27200000      -0.12130000
C        2.16490000      -1.20670000       0.68350000
O        2.16750000      -1.16350000       1.88600000
C        0.00500000      -1.94980000      -1.32940000
C       -0.73860000      -2.22170000      -2.61980000
O        0.14100000      -2.78310000      -0.46150000
H        0.54300000       2.18730000      -0.64670000
H       -1.13630000       1.89110000      -0.13760000
H        0.13690000       2.10490000       1.07580000
H       -0.40610000      -0.39130000       0.80530000
H        0.68190000       0.01640000      -2.08930000
H        2.76540000      -1.91640000       0.08880000
H       -0.04360000      -2.16800000      -3.46630000
H       -1.19330000      -3.21170000      -2.58430000
H       -1.50720000      -1.45980000      -2.79130000
