19
Properties=species:S:1:pos:R:3 gdb_124450=T pbc="F F F"
C        0.14820000       1.50530000       0.02510000
C       -0.00360000      -0.03180000       0.00700000
C        0.66920000      -0.64210000       1.24690000
C       -1.50380000      -0.39930000      -0.01600000
C        0.63830000      -0.56140000      -1.25020000
N        1.64260000      -1.43210000      -1.29290000
N        1.82180000      -1.55900000      -2.60210000
N        1.00330000      -0.83230000      -3.34680000
N        0.24290000      -0.19080000      -2.50170000
H        1.20290000       1.79660000       0.05690000
H       -0.30210000       1.95290000      -0.86450000
H       -0.34530000       1.91950000       0.91030000
H        0.19560000      -0.25100000       2.15290000
H        0.57760000      -1.73170000       1.25510000
H        1.73440000      -0.39770000       1.28390000
H       -1.99150000       0.00500000      -0.90660000
H       -1.64330000      -1.48510000      -0.01390000
H       -2.00250000       0.00890000       0.86910000
H        2.52530000      -2.16080000      -3.00320000
