19
Properties=species:S:1:pos:R:3 gdb_98210=T pbc="F F F"
C        0.99420000       1.30960000      -0.18360000
O        1.01760000      -0.11630000      -0.33000000
C        0.01590000      -0.63570000      -1.06170000
O       -0.87670000       0.01330000      -1.54130000
C        0.17800000      -2.15650000      -1.19540000
C       -1.16360000      -2.81430000      -1.55790000
C        1.22040000      -2.43870000      -2.18320000
C        2.05790000      -2.66850000      -3.01700000
C        3.07700000      -2.94890000      -4.01810000
H        1.06580000       1.79720000      -1.15920000
H        0.07040000       1.63220000       0.30320000
H        1.85840000       1.55850000       0.43200000
H        0.51830000      -2.52170000      -0.21820000
H       -1.54360000      -2.40440000      -2.49520000
H       -1.03240000      -3.89300000      -1.66830000
H       -1.90510000      -2.62500000      -0.77700000
H        3.10380000      -4.01480000      -4.26990000
H        2.88790000      -2.39480000      -4.94410000
H        4.07370000      -2.66790000      -3.66060000
