14
Properties=species:S:1:pos:R:3 gdb_50388=T pbc="F F F"
O        0.15100000      -0.13340000      -0.02620000
C        0.07130000       1.06310000       0.07350000
C        1.27140000       1.99510000      -0.00260000
C        1.48080000       2.83760000       1.30160000
N        2.60670000       2.20830000       2.00090000
C        3.09250000       1.35180000       1.18580000
N        2.52760000       1.25180000      -0.08580000
C        4.22590000       0.52560000       1.50420000
N        5.12710000      -0.16060000       1.73120000
H       -0.90420000       1.57640000       0.22160000
H        1.12430000       2.64770000      -0.87200000
H        1.73930000       3.87490000       1.06340000
H        0.59540000       2.86300000       1.94570000
H        2.43900000       0.31310000      -0.46170000
