16
Properties=species:S:1:pos:R:3 gdb_30499=T pbc="F F F"
C       -0.07170000       1.47120000      -0.00900000
N        0.03180000       0.02380000       0.00870000
C       -1.01710000      -0.68070000       0.02590000
O       -2.29530000      -0.03890000       0.02720000
C       -3.40540000      -0.77840000       0.03870000
N       -3.49630000      -2.05090000       0.05870000
C       -2.28670000      -2.74960000       0.06560000
N       -2.45400000      -4.10590000       0.13780000
C       -1.08350000      -2.11260000       0.04220000
H        0.93400000       1.89880000      -0.02290000
H       -0.61130000       1.84140000      -0.89200000
H       -0.59630000       1.86370000       0.87340000
H       -4.29750000      -0.15720000       0.02810000
H       -3.36820000      -4.44250000      -0.11900000
H       -1.67770000      -4.69610000      -0.11150000
H       -0.14230000      -2.64590000       0.04210000
