17
Properties=species:S:1:pos:R:3 gdb_13612=T pbc="F F F"
C        0.27440000       1.16130000      -0.08830000
O        0.00820000      -0.22890000       0.11920000
C        0.58630000      -0.75430000       1.22320000
O        1.30720000      -0.14220000       1.97490000
N        0.16800000      -2.05930000       1.41010000
C        0.21520000      -3.10830000       0.41030000
C        1.06730000      -3.17460000       1.64650000
C        2.56430000      -2.99410000       1.57070000
H        1.34690000       1.34110000      -0.19870000
H       -0.25290000       1.42910000      -1.00440000
H       -0.09490000       1.75600000       0.75120000
H       -0.68120000      -3.71580000       0.32030000
H        0.71380000      -2.88360000      -0.52940000
H        0.72720000      -3.82900000       2.44760000
H        2.85350000      -2.41230000       0.69070000
H        2.93650000      -2.46800000       2.45370000
H        3.05450000      -3.97110000       1.51280000
