18
Properties=species:S:1:pos:R:3 gdb_93128=T pbc="F F F"
C        0.00300000       1.55060000      -0.02280000
C        0.06530000       0.02100000      -0.00230000
C        0.74420000      -0.56840000      -1.24730000
N        0.96510000      -2.00720000      -1.17280000
C        0.96640000      -2.54800000      -0.03320000
O        0.78990000      -1.98330000       1.19330000
C        0.77260000      -0.56250000       1.24230000
C        2.18900000      -0.02620000       1.42410000
O        3.18630000      -0.66700000       1.22910000
H        0.99310000       2.00030000      -0.15000000
H       -0.61770000       1.88880000      -0.85810000
H       -0.43480000       1.95160000       0.89770000
H       -0.95930000      -0.36920000       0.03840000
H        0.13510000      -0.36180000      -2.13450000
H        1.71240000      -0.07700000      -1.42170000
H        1.10170000      -3.62100000       0.08150000
H        0.20810000      -0.29620000       2.14560000
H        2.23250000       1.03300000       1.76240000
