20
Properties=species:S:1:pos:R:3 gdb_57337=T pbc="F F F"
C       -0.11540000       1.51790000       0.09320000
C        0.02910000      -0.00480000       0.01680000
C        0.70690000      -0.56700000       1.27180000
O       -1.26310000      -0.61180000      -0.14610000
C        0.77050000      -0.48830000      -1.27900000
C        2.25940000      -0.13150000      -1.32530000
O        0.68390000      -1.89820000      -1.36710000
C        0.09980000       0.11170000      -2.46650000
N       -0.39390000       0.57050000      -3.40520000
H        0.85740000       2.01210000       0.16980000
H       -0.64130000       1.90540000      -0.78190000
H       -0.68990000       1.78760000       0.98620000
H        0.06270000      -0.39490000       2.14140000
H        0.87740000      -1.64030000       1.16870000
H        1.66090000      -0.07370000       1.47470000
H       -1.76550000      -0.48920000       0.66540000
H        2.77760000      -0.61010000      -0.49280000
H        2.68620000      -0.50700000      -2.25730000
H        2.41450000       0.94830000      -1.28250000
H       -0.23890000      -2.11550000      -1.17150000
