15
Properties=species:S:1:pos:R:3 gdb_21114=T pbc="F F F"
C        0.05170000       1.41480000      -0.05140000
N        0.03860000      -0.02320000       0.02220000
N        0.02250000      -0.80050000      -1.10370000
N        0.01370000      -2.01610000      -0.74450000
N        0.02380000      -2.06870000       0.61310000
C        0.01770000      -3.31360000       1.34120000
C        0.04020000      -0.80250000       1.16890000
N        0.05230000      -0.54590000       2.42200000
H        0.95080000       1.82100000       0.42490000
H        0.04600000       1.69270000      -1.10530000
H       -0.83160000       1.83800000       0.43920000
H        0.00430000      -4.12460000       0.61330000
H        0.90900000      -3.38770000       1.97080000
H       -0.86500000      -3.37080000       1.98460000
H        0.06320000       0.45450000       2.60070000
