20
Properties=species:S:1:pos:R:3 gdb_22077=T pbc="F F F"
C        0.41110000       1.60230000      -0.09400000
C        0.01670000       0.14580000       0.08440000
O        0.69340000      -0.75660000      -0.83300000
C        1.26090000      -1.56880000       0.24870000
C        0.69130000      -2.98360000       0.22690000
C        2.78450000      -1.54960000       0.21340000
C        0.60610000      -0.62630000       1.24070000
N        0.62060000      -0.59170000       2.50230000
O       -0.15290000       0.48140000       2.98960000
H        1.49200000       1.73130000       0.00740000
H        0.11250000       1.94780000      -1.08840000
H       -0.08850000       2.21740000       0.65940000
H       -1.07500000       0.03750000       0.00750000
H        1.02130000      -3.50250000      -0.67870000
H        1.03520000      -3.54820000       1.09890000
H       -0.40130000      -2.96390000       0.23500000
H        3.16270000      -0.52460000       0.21310000
H        3.19210000      -2.07070000       1.08510000
H        3.14170000      -2.05070000      -0.69200000
H       -0.04910000       0.39050000       3.94290000
