20
Properties=species:S:1:pos:R:3 gdb_83434=T pbc="F F F"
O       -0.01910000       1.38830000       0.18370000
C       -0.06850000      -0.01260000       0.18430000
C       -0.43930000      -0.74370000       1.44010000
C       -1.55950000       0.00670000       2.16660000
C       -2.44850000      -0.05390000       0.88560000
C       -1.33570000      -0.79880000       0.14730000
N       -1.62180000      -1.77530000      -0.84860000
C       -0.70680000      -2.89970000      -1.00580000
C       -2.05170000      -3.09920000      -0.39940000
H       -0.29760000       1.69350000      -0.68620000
H        0.74830000      -0.48730000      -0.36320000
H        0.23400000      -1.46340000       1.89270000
H       -1.98380000      -0.56500000       2.99440000
H       -1.29750000       1.00720000       2.51820000
H       -3.33460000      -0.67760000       1.02260000
H       -2.75120000       0.90160000       0.44800000
H       -0.50730000      -3.20620000      -2.02840000
H        0.14730000      -2.96350000      -0.33420000
H       -2.08410000      -3.28350000       0.67260000
H       -2.85460000      -3.55260000      -0.97270000
