17
Properties=species:S:1:pos:R:3 gdb_71143=T pbc="F F F"
C       -0.05330000       1.55160000       0.03620000
C        0.06820000       0.04750000       0.03920000
C       -1.21460000      -0.83890000       0.26810000
C       -0.36410000      -1.72400000       1.18530000
C        0.72350000      -0.71260000       1.23260000
N        0.99780000      -2.01420000       0.62920000
C        1.12660000      -1.82860000      -0.80320000
O        1.44640000      -2.68330000      -1.58340000
N        0.83840000      -0.49800000      -1.07900000
H        0.93650000       2.01620000      -0.00960000
H       -0.63410000       1.90040000      -0.82480000
H       -0.55990000       1.89920000       0.94120000
H       -1.96900000      -0.31010000       0.85710000
H       -1.67890000      -1.28290000      -0.61810000
H       -0.71650000      -2.41190000       1.94310000
H        1.35140000      -0.33060000       2.02850000
H        0.55990000      -0.29700000      -2.03000000
