18
Properties=species:S:1:pos:R:3 gdb_120370=T pbc="F F F"
O        0.12410000       1.42130000      -0.14300000
C        0.06960000       0.00550000      -0.05300000
C       -1.36630000      -0.52180000      -0.03520000
C       -1.43250000      -2.05220000       0.03230000
N       -0.91850000      -2.57820000       1.31430000
C       -1.85770000      -3.28620000       1.80520000
N       -3.01800000      -3.37020000       1.04580000
C       -2.85950000      -2.59210000      -0.10280000
N       -3.66180000      -2.34910000      -1.05540000
H       -0.22930000       1.77990000       0.67710000
H        0.58940000      -0.36700000      -0.94320000
H        0.61570000      -0.36830000       0.82400000
H       -1.90060000      -0.10670000       0.82990000
H       -1.89760000      -0.19290000      -0.93360000
H       -0.82060000      -2.46790000      -0.77950000
H       -1.80090000      -3.81380000       2.75240000
H       -3.86160000      -3.85000000       1.31140000
H       -4.56220000      -2.81490000      -0.93320000
