16
Properties=species:S:1:pos:R:3 gdb_46955=T pbc="F F F"
O       -0.07140000       0.09720000       0.49960000
C       -0.05970000       1.19850000       0.03080000
O       -1.19430000       1.72860000      -0.49380000
C       -1.37100000       3.14990000      -0.63190000
C       -0.23650000       3.94010000      -0.01060000
C        0.15430000       3.61700000       1.47910000
C        1.44510000       2.96020000       0.96150000
C        1.11610000       3.36580000      -0.44530000
N        1.12890000       1.96520000      -0.06240000
H       -1.45040000       3.37480000      -1.70260000
H       -2.33430000       3.38080000      -0.16400000
H       -0.37230000       5.00680000      -0.19640000
H        0.35230000       4.53000000       2.04410000
H       -0.51970000       2.97890000       2.05830000
H        2.39930000       2.88810000       1.46780000
H        1.75340000       3.68110000      -1.26290000
