19
Properties=species:S:1:pos:R:3 gdb_80589=T pbc="F F F"
C       -0.06970000       1.52350000       0.05100000
C        0.07770000       0.02000000       0.00950000
C        1.38520000      -0.68690000      -0.17970000
O        2.46100000       0.03770000       0.42670000
C        1.89050000      -0.16310000       1.73190000
C        0.64510000      -0.83540000       1.13300000
C        2.70500000      -1.13190000       2.59120000
C        2.30220000      -1.16980000       4.05520000
O        3.57990000      -1.82000000       2.13020000
H        0.85600000       1.99720000       0.38610000
H       -0.29390000       1.91280000      -0.94750000
H       -0.88110000       1.82840000       0.72010000
H       -0.73740000      -0.50650000      -0.48550000
H        1.63620000      -1.38740000      -0.96740000
H        1.73520000       0.78130000       2.27180000
H        0.12770000      -1.68520000       1.55860000
H        1.21280000      -1.18020000       4.16970000
H        2.74000000      -2.04380000       4.53840000
H        2.66610000      -0.26440000       4.55580000
