17
Properties=species:S:1:pos:R:3 gdb_6731=T pbc="F F F"
C        0.53820000       1.08350000       0.43680000
C       -0.48920000       0.39210000      -0.47830000
C        0.13030000      -0.29930000      -1.60380000
C        0.67740000      -0.86530000      -2.51370000
C        1.32170000      -1.55210000      -3.62010000
C        2.52570000      -2.42010000      -3.19770000
N        2.88990000      -3.33680000      -4.14610000
O        3.12810000      -2.27590000      -2.15860000
H        1.24580000       0.35560000       0.84180000
H        1.10890000       1.83300000      -0.11800000
H        0.03310000       1.58030000       1.27070000
H       -1.07920000      -0.32350000       0.10880000
H       -1.20510000       1.13470000      -0.85410000
H        0.59640000      -2.17340000      -4.16250000
H        1.69880000      -0.82640000      -4.35480000
H        2.30290000      -3.55700000      -4.93150000
H        3.64040000      -3.96890000      -3.91970000
