19
Properties=species:S:1:pos:R:3 gdb_119309=T pbc="F F F"
O       -0.19630000       1.47090000       0.15340000
C        0.00620000       0.06730000       0.09240000
C       -1.36330000      -0.57870000      -0.08060000
C       -1.33440000      -2.11600000      -0.08390000
C       -1.16810000      -2.74510000       1.33670000
O       -2.56500000      -3.07610000       1.40310000
C       -2.76060000      -2.74020000       0.01900000
C       -0.48290000      -2.65910000      -1.12810000
C        0.21300000      -3.12000000      -1.99430000
H        0.66420000       1.89620000       0.20830000
H        0.65570000      -0.21160000      -0.74970000
H        0.48540000      -0.30560000       1.01300000
H       -2.01650000      -0.24540000       0.73380000
H       -1.80530000      -0.22110000      -1.01720000
H       -0.52820000      -3.63510000       1.35880000
H       -0.86820000      -2.05540000       2.13400000
H       -3.59380000      -2.04340000      -0.12730000
H       -2.90490000      -3.62790000      -0.60810000
H        0.82770000      -3.52770000      -2.75840000
