19
Properties=species:S:1:pos:R:3 gdb_89957=T pbc="F F F"
C        0.21780000       1.67600000       0.13960000
C       -0.03340000       0.18470000       0.19780000
O        0.55620000      -0.53650000      -0.92320000
C        1.17520000      -1.50230000      -0.05630000
C        2.64440000      -1.19000000       0.30200000
C        2.17090000      -0.38610000       1.55160000
C        0.69310000      -0.71980000       1.22150000
C        0.76320000      -2.91300000      -0.35380000
O        1.36860000      -3.88570000       0.02350000
H        1.28530000       1.90740000       0.10210000
H       -0.24910000       2.09450000      -0.75750000
H       -0.22010000       2.17150000       1.01300000
H       -1.11650000      -0.00340000       0.21760000
H        3.20330000      -2.09560000       0.54590000
H        3.16740000      -0.62870000      -0.47430000
H        2.49910000      -0.82570000       2.49540000
H        2.42260000       0.67630000       1.56860000
H        0.08370000      -1.16230000       2.00850000
H       -0.17760000      -2.99110000      -0.94330000
