13
Properties=species:S:1:pos:R:3 gdb_131047=T pbc="F F F"
O        0.55490000       1.91880000       1.43060000
C        0.15500000       1.55790000       0.34420000
N        0.93290000       0.98940000      -0.62910000
C        2.29180000       0.73760000      -0.52580000
N        2.98050000       0.19310000      -1.48110000
N        4.25620000       0.13790000      -0.94840000
C        4.36330000       0.64310000       0.33070000
O        5.32690000       0.73290000       1.05480000
N        3.03410000       1.03400000       0.57890000
H       -0.89610000       1.65140000       0.02160000
H        0.51260000       0.71770000      -1.50620000
H        5.00910000      -0.24920000      -1.48820000
H        2.66930000       1.45770000       1.41800000
