23
Properties=species:S:1:pos:R:3 gdb_102573=T pbc="F F F"
C       -0.22780000       1.07830000       0.66530000
C       -0.11590000      -0.32330000       0.06200000
C        0.71310000      -0.35820000      -1.22600000
O        2.02720000       0.05670000      -0.87190000
C        2.80960000       0.54930000      -1.93860000
C        0.72600000      -1.74750000      -1.84370000
C       -0.48190000      -2.25000000      -2.61390000
C        0.81430000      -1.97130000      -3.32690000
O        0.91960000      -0.83630000      -4.14040000
H        0.76450000       1.48420000       0.87570000
H       -0.73340000       1.76540000      -0.02310000
H       -0.79940000       1.06240000       1.59840000
H        0.34920000      -1.00540000       0.78480000
H       -1.11150000      -0.72540000      -0.15620000
H        0.28760000       0.35010000      -1.95430000
H        3.77180000       0.84680000      -1.51270000
H        2.97880000      -0.20090000      -2.72080000
H        2.34270000       1.42690000      -2.41050000
H        1.24400000      -2.47780000      -1.22750000
H       -0.81020000      -3.27490000      -2.48030000
H       -1.28180000      -1.53450000      -2.78010000
H        1.40120000      -2.82480000      -3.66620000
H        0.40020000      -0.99140000      -4.93620000
