18
Properties=species:S:1:pos:R:3 gdb_37395=T pbc="F F F"
C       -0.05700000       1.57270000       0.03290000
C        1.49630000       1.47330000       0.02000000
C        2.00860000       1.28920000       1.44630000
N        0.98560000       1.36060000       2.52480000
C        1.49110000       0.05540000       2.08370000
C        0.72300000      -0.76860000       1.06810000
O        1.76480000      -1.09480000       0.07870000
C        1.31110000       0.02990000      -0.67490000
C       -0.08130000       0.03710000      -0.02780000
H       -0.51970000       2.09600000       0.86570000
H       -0.43200000       1.96560000      -0.91780000
H        2.05660000       2.22600000      -0.53560000
H        3.01390000       1.62540000       1.67640000
H        1.43790000       1.60770000       3.40110000
H        2.12610000      -0.51910000       2.75300000
H        0.25140000      -1.67050000       1.46350000
H        1.53340000      -0.03040000      -1.74150000
H       -0.93620000      -0.50710000      -0.43050000
