16
Properties=species:S:1:pos:R:3 gdb_18326=T pbc="F F F"
O        0.06100000      -0.01510000      -0.31880000
C        0.00780000       1.17520000      -0.14850000
C       -1.26860000       2.02090000      -0.04380000
C       -0.83990000       3.43840000      -0.45920000
C        0.63350000       3.53660000      -0.05390000
O        0.80510000       3.68860000       1.37820000
C        1.54000000       2.45230000       1.46570000
C        1.21370000       2.10460000      -0.00760000
H       -2.07280000       1.58580000      -0.63940000
H       -1.59020000       2.00230000       1.00520000
H       -0.91800000       3.55980000      -1.54630000
H       -1.43010000       4.23040000       0.00880000
H        1.19210000       4.30050000      -0.60490000
H        2.60860000       2.62130000       1.64820000
H        1.14570000       1.78210000       2.23830000
H        2.04430000       1.80840000      -0.64640000
