12
Properties=species:S:1:pos:R:3 gdb_20639=T pbc="F F F"
C        0.04510000       1.50020000       0.00660000
C       -0.08900000       0.02090000       0.05280000
C       -1.11280000      -0.84090000      -0.18920000
C       -0.53360000      -2.11910000       0.04790000
N        0.73480000      -2.03170000       0.40320000
O        1.00880000      -0.68190000       0.40450000
C       -1.16660000      -3.39130000      -0.05970000
N       -1.71900000      -4.40200000      -0.15930000
H        0.81590000       1.79850000      -0.71090000
H       -0.90230000       1.95340000      -0.28930000
H        0.33250000       1.89540000       0.98590000
H       -2.12210000      -0.61710000      -0.48850000
