23
Properties=species:S:1:pos:R:3 gdb_122451=T pbc="F F F"
C       -0.36540000       1.33180000       0.25670000
O        0.14110000       0.05000000      -0.02460000
C        0.61480000      -0.61640000       1.12490000
C        1.11530000      -1.99630000       0.70810000
C        1.68720000      -2.75310000       1.88160000
O        0.76700000      -3.23450000       2.87450000
C        1.54260000      -4.19960000       2.14010000
C        0.75290000      -5.11100000       1.22570000
C        2.60540000      -4.89840000       2.96370000
H        0.40410000       1.99000000       0.69170000
H       -0.70620000       1.76470000      -0.68720000
H       -1.21490000       1.29230000       0.95700000
H        1.42820000      -0.03740000       1.59770000
H       -0.18620000      -0.72040000       1.87480000
H        0.28840000      -2.54180000       0.24750000
H        1.89300000      -1.87410000      -0.05590000
H        2.57150000      -2.27810000       2.31700000
H       -0.05480000      -4.58080000       0.71990000
H        1.40490000      -5.56160000       0.46950000
H        0.30670000      -5.92540000       1.80710000
H        2.15310000      -5.67510000       3.59010000
H        3.34640000      -5.38030000       2.31660000
H        3.12040000      -4.19040000       3.61750000
