21
Properties=species:S:1:pos:R:3 gdb_92635=T pbc="F F F"
C        0.01060000       1.59390000       0.05120000
C        0.00850000       0.07400000      -0.01330000
C        0.71360000      -0.65750000      -1.21530000
C        1.25190000      -1.72560000      -0.21140000
C        2.71540000      -2.13650000      -0.11150000
O        2.97780000      -2.51810000       1.23620000
C        2.86780000      -1.46710000       2.18450000
C        1.71790000      -0.52000000       1.93350000
C        0.94540000      -0.72110000       0.87550000
H        1.02920000       1.98620000      -0.03620000
H       -0.59110000       2.02280000      -0.75750000
H       -0.40600000       1.95120000       0.99920000
H       -1.01890000      -0.30320000       0.07650000
H        0.07920000      -1.00540000      -2.03380000
H        1.52400000      -0.04490000      -1.62300000
H        0.60260000      -2.60780000      -0.18150000
H        2.97140000      -3.00820000      -0.72070000
H        3.36350000      -1.29830000      -0.41610000
H        2.77740000      -1.96170000       3.15970000
H        3.80560000      -0.88140000       2.21350000
H        1.62670000       0.34300000       2.58810000
