20
Properties=species:S:1:pos:R:3 gdb_60224=T pbc="F F F"
C       -0.12460000       1.54220000       0.17760000
C       -0.04000000       0.02320000       0.02820000
C       -1.41160000      -0.62930000      -0.09980000
O        0.69580000      -0.34340000      -1.15270000
C        2.06510000      -0.45470000      -1.03260000
C        2.65160000      -1.09910000      -2.30750000
N        3.38790000      -0.02730000      -2.99290000
C        3.35240000       0.96180000      -2.20370000
O        2.71700000       0.85210000      -1.00830000
H        0.86910000       1.98430000       0.26560000
H       -0.61940000       1.97850000      -0.69610000
H       -0.70610000       1.80230000       1.06820000
H        0.48380000      -0.39950000       0.90000000
H       -1.93070000      -0.24840000      -0.98490000
H       -1.31710000      -1.71390000      -0.19810000
H       -2.02410000      -0.40950000       0.77960000
H        2.34110000      -0.94130000      -0.08890000
H        3.32980000      -1.92710000      -2.07750000
H        1.84270000      -1.48150000      -2.93540000
H        3.80540000       1.93010000      -2.38590000
