18
Properties=species:S:1:pos:R:3 gdb_123899=T pbc="F F F"
C        0.00120000       1.54570000      -0.02650000
C        1.45430000       2.05510000       0.01530000
N        2.19910000       1.63000000       1.21490000
C        1.88510000       0.31760000       1.57730000
C        0.90770000      -0.49780000       1.03920000
C       -0.05090000       0.00320000      -0.00090000
C        1.07450000      -1.72380000       1.72430000
N        2.05980000      -1.67880000       2.61510000
N        2.55190000      -0.41760000       2.50090000
H       -0.54060000       1.94620000       0.83960000
H       -0.49420000       1.93200000      -0.92340000
H        1.99450000       1.68110000      -0.86380000
H        1.48720000       3.14700000      -0.02870000
H        2.08160000       2.28440000       1.98060000
H       -1.07380000      -0.33310000       0.20330000
H        0.20410000      -0.38870000      -0.99560000
H        0.50470000      -2.63590000       1.61230000
H        3.34690000      -0.14420000       3.05230000
