19
Properties=species:S:1:pos:R:3 gdb_32736=T pbc="F F F"
C        0.02610000       1.59140000      -0.20580000
C        0.04200000       0.06300000      -0.13550000
C       -1.35410000      -0.53240000       0.13500000
C       -1.38060000      -2.01720000       0.18750000
C       -1.60750000      -2.91320000       1.19070000
O       -1.88990000      -2.56780000       2.48040000
C       -1.48260000      -4.22730000       0.63040000
C       -1.18500000      -4.03350000      -0.68120000
O       -1.11690000      -2.71320000      -0.96840000
H        1.02590000       1.99160000      -0.40040000
H       -0.63530000       1.94460000      -1.00500000
H       -0.33050000       2.02830000       0.73390000
H        0.42680000      -0.35040000      -1.07490000
H        0.72840000      -0.27000000       0.65210000
H       -1.73530000      -0.16390000       1.09390000
H       -2.04970000      -0.17430000      -0.63710000
H       -2.09250000      -3.36550000       2.97640000
H       -1.59930000      -5.17380000       1.13650000
H       -1.00180000      -4.70640000      -1.50260000
