17
Properties=species:S:1:pos:R:3 gdb_44738=T pbc="F F F"
O        0.02350000       0.04260000       0.61340000
C       -0.01230000       1.12620000       0.09860000
C       -1.34120000       1.85850000      -0.14660000
C       -1.20990000       3.16330000      -0.96340000
C        0.02540000       3.90080000      -0.40730000
C        1.11420000       2.99290000      -0.98300000
O        1.15420000       1.74140000      -0.23110000
C        0.59430000       2.72000000      -2.38370000
C       -0.73570000       2.81970000      -2.36760000
H       -2.01290000       1.13630000      -0.61940000
H       -1.76060000       2.06490000       0.84530000
H       -2.13850000       3.73770000      -0.93090000
H        0.11060000       4.90700000      -0.82530000
H        0.05980000       3.95910000       0.68420000
H        2.13240000       3.37520000      -0.91860000
H        1.22120000       2.39970000      -3.20550000
H       -1.40870000       2.60000000      -3.18830000
