18
Properties=species:S:1:pos:R:3 gdb_35771=T pbc="F F F"
C        0.06760000      -1.20410000       0.02330000
C        0.07060000      -0.00310000       0.01980000
C        0.02310000       1.45540000       0.03590000
C       -0.73120000       1.99470000       1.26970000
C       -0.54960000       3.50070000       1.39260000
N        0.69380000       3.94720000       2.05120000
C        0.52570000       4.17440000       0.61160000
C        1.39450000       3.33880000      -0.30580000
O        1.35490000       1.95780000       0.00190000
H        0.07810000      -2.26600000       0.01920000
H       -0.50720000       1.79700000      -0.87140000
H       -1.79160000       1.74040000       1.17550000
H       -0.34480000       1.50200000       2.16590000
H       -1.45110000       4.07340000       1.59560000
H        0.52760000       4.81040000       2.56180000
H        0.34690000       5.19030000       0.26360000
H        1.07050000       3.50680000      -1.34820000
H        2.44510000       3.63390000      -0.22250000
