27
Properties=species:S:1:pos:R:3 gdb_94540=T pbc="F F F"
C        1.09680000       1.65140000      -0.58140000
C        1.12480000       0.15340000      -0.28050000
C        2.47480000      -0.51460000      -0.68430000
C        2.91060000      -0.48880000       0.80380000
C        1.41290000      -0.33810000       1.18780000
C        0.95980000       0.35640000       2.49120000
C        1.55120000       1.76480000       2.69370000
C       -0.57870000       0.44260000       2.50090000
C        1.41710000      -0.52900000       3.67010000
H        1.98350000       2.16810000      -0.20120000
H        1.07180000       1.80460000      -1.66670000
H        0.21430000       2.14440000      -0.16160000
H        0.23510000      -0.30470000      -0.72480000
H        2.33740000      -1.53520000      -1.05210000
H        3.09570000       0.03140000      -1.40010000
H        3.44980000      -1.35590000       1.19360000
H        3.49310000       0.40810000       1.03370000
H        0.99580000      -1.35340000       1.23490000
H        1.19070000       2.47770000       1.95000000
H        1.26770000       2.14990000       3.67970000
H        2.64510000       1.75520000       2.65220000
H       -1.03020000      -0.55060000       2.39780000
H       -0.94070000       0.87620000       3.44000000
H       -0.95290000       1.06550000       1.68220000
H        2.50820000      -0.62040000       3.69930000
H        1.09330000      -0.10330000       4.62620000
H        0.99880000      -1.53890000       3.59470000
