14
Properties=species:S:1:pos:R:3 gdb_77796=T pbc="F F F"
O       -0.19870000       1.42170000       0.07240000
C       -0.09460000       0.03820000       0.03760000
C       -0.43220000      -0.84060000       1.23590000
C       -1.58610000      -0.16310000       1.96390000
O       -1.76380000       0.27000000       3.06450000
N       -2.40720000      -0.18980000       0.82300000
C       -1.35310000      -0.78390000      -0.01180000
C       -1.63750000      -1.77810000      -0.98900000
C       -1.86710000      -2.60010000      -1.83600000
H        0.42410000       1.76240000       0.72430000
H        0.71860000      -0.35370000      -0.57500000
H        0.20420000      -1.64220000       1.58340000
H       -2.92890000       0.62690000       0.52290000
H       -2.07750000      -3.33200000      -2.57630000
