21
Properties=species:S:1:pos:R:3 gdb_74772=T pbc="F F F"
C       -0.04450000       1.50110000       0.03150000
C       -0.04780000       0.01190000      -0.03150000
C       -0.04660000      -0.80760000      -1.08550000
C        0.04260000      -2.25040000      -0.55260000
C       -0.83790000      -2.08000000       0.71970000
C        0.03630000      -0.89460000       1.22330000
C        1.40790000      -1.59550000       1.19440000
C        1.42370000      -2.40660000       0.13390000
C        2.51730000      -3.26120000      -0.40940000
H        0.86970000       1.87370000       0.51340000
H       -0.10620000       1.94800000      -0.96500000
H       -0.88440000       1.88080000       0.62760000
H       -0.04330000      -0.53760000      -2.13370000
H       -0.22420000      -3.03890000      -1.25760000
H       -1.86990000      -1.79640000       0.49350000
H       -0.81320000      -2.94640000       1.38710000
H       -0.23950000      -0.41990000       2.16600000
H        2.21520000      -1.39660000       1.88750000
H        3.40870000      -3.22810000       0.22360000
H        2.20250000      -4.30900000      -0.49970000
H        2.80660000      -2.93760000      -1.41860000
