11
Properties=species:S:1:pos:R:3 gdb_2618=T pbc="F F F"
N       -0.03020000      -1.12650000      -0.00360000
C        0.00600000       0.02690000       0.00220000
C        0.00170000       1.49040000       0.01000000
O        1.33580000       1.95260000      -0.00010000
C        1.40010000       3.36310000       0.00670000
C        2.80450000       3.77460000      -0.00450000
N        3.90010000       4.13690000      -0.01300000
H       -0.55450000       1.84850000      -0.87110000
H       -0.53770000       1.83900000       0.90530000
H        0.89730000       3.79260000      -0.87460000
H        0.91420000       3.78330000       0.90180000
