21
Properties=species:S:1:pos:R:3 gdb_81686=T pbc="F F F"
C       -0.21480000       1.46120000      -0.02920000
C       -0.00550000      -0.04760000       0.00280000
C        1.19300000      -0.61610000      -0.82050000
C        2.09020000      -0.37400000       0.42480000
C        0.78000000      -0.63000000       1.21980000
O        0.49950000      -2.02840000       1.29540000
C        1.02960000      -2.75210000       0.19380000
C        0.23880000      -4.03110000       0.02510000
O        0.96770000      -2.01260000      -1.01760000
H        0.70450000       2.02420000       0.16080000
H       -0.59630000       1.77750000      -1.00610000
H       -0.94710000       1.76560000       0.72640000
H       -0.94430000      -0.57310000      -0.19090000
H        1.45500000      -0.18890000      -1.79090000
H        2.95590000      -1.01520000       0.59570000
H        2.40030000       0.66870000       0.49470000
H        0.64280000      -0.21640000       2.22120000
H        2.08630000      -2.98330000       0.40610000
H       -0.80660000      -3.79390000      -0.18590000
H        0.64840000      -4.61380000      -0.80370000
H        0.29400000      -4.62460000       0.94100000
