23
Properties=species:S:1:pos:R:3 gdb_120144=T pbc="F F F"
C       -0.05840000       1.43370000      -0.06570000
C       -0.15990000      -0.05820000      -0.33160000
O        1.09810000      -0.52000000      -0.80110000
C        1.10700000      -1.88880000      -1.07130000
C        0.57770000      -2.47240000      -2.34640000
C        0.85310000      -1.52170000      -3.51940000
C        2.39030000      -1.62920000      -3.24140000
C        3.23410000      -0.36780000      -3.09750000
C        2.09530000      -2.49680000      -2.00570000
H        0.71840000       1.63980000       0.67600000
H        0.19340000       1.97290000      -0.98350000
H       -1.01050000       1.81900000       0.31170000
H       -0.43420000      -0.59730000       0.59040000
H       -0.94250000      -0.27290000      -1.07560000
H        0.90470000      -2.50170000      -0.18930000
H       -0.13380000      -3.29010000      -2.35660000
H        0.56550000      -1.93000000      -4.49010000
H        0.42070000      -0.52190000      -3.41580000
H        2.83140000      -2.27260000      -4.01030000
H        2.81370000       0.30110000      -2.34460000
H        4.25850000      -0.61710000      -2.79770000
H        3.29240000       0.17000000      -4.05110000
H        2.71210000      -3.33000000      -1.68550000
