18
Properties=species:S:1:pos:R:3 gdb_37463=T pbc="F F F"
C       -0.04730000       1.55990000      -0.12840000
C        1.44330000       1.95710000       0.04580000
C        2.05320000       0.79010000       0.85030000
C        1.76030000       0.91280000       2.35100000
O        0.48360000       1.50580000       2.64710000
C        0.59150000       0.07600000       2.63660000
C        0.23470000      -0.64280000       1.36120000
C       -0.03780000       0.04360000       0.06100000
N        1.32790000      -0.44120000       0.36450000
H       -0.68750000       2.06920000       0.59030000
H       -0.40910000       1.79680000      -1.13310000
H        1.93310000       2.01860000      -0.93040000
H        1.57110000       2.91820000       0.54920000
H        3.12360000       0.66150000       0.67510000
H        2.55100000       1.13180000       3.06430000
H        0.41000000      -0.41320000       3.58950000
H       -0.10450000      -1.66920000       1.48050000
H       -0.57070000      -0.54560000      -0.68250000
