16
Properties=species:S:1:pos:R:3 gdb_128369=T pbc="F F F"
C        0.01000000       1.40330000       0.09800000
N       -0.05580000      -0.03020000      -0.11900000
C       -1.24410000      -0.68450000      -0.04210000
N       -2.40850000      -0.06300000      -0.01570000
O       -3.32730000      -1.16590000       0.00330000
C       -2.57210000      -2.26300000       0.00370000
O       -3.15400000      -3.44470000       0.02830000
C       -4.58970000      -3.46720000       0.05240000
N       -1.29030000      -2.06170000      -0.02150000
H        1.02390000       1.74720000      -0.11580000
H       -0.68020000       1.90500000      -0.58510000
H       -0.25980000       1.69400000       1.12260000
H        0.73650000      -0.58810000       0.15510000
H       -4.96930000      -2.96020000       0.94320000
H       -4.99850000      -2.98810000      -0.84100000
H       -4.86070000      -4.52200000       0.07320000
