17
Properties=species:S:1:pos:R:3 gdb_15533=T pbc="F F F"
C       -0.09990000       1.53540000      -0.01290000
C       -0.03480000       0.04370000      -0.05120000
C       -0.04730000      -0.75680000      -1.12270000
C        0.08660000      -2.20910000      -0.73490000
C       -0.07090000      -2.15960000       0.80480000
N        0.05270000      -0.72620000       1.13790000
C        0.20170000      -0.28440000       2.41810000
O        0.29050000       0.87080000       2.78210000
H        0.78760000       1.96150000       0.46080000
H       -0.18540000       1.91820000      -1.03280000
H       -0.95500000       1.88240000       0.57370000
H       -0.09960000      -0.40510000      -2.14330000
H       -0.67320000      -2.85140000      -1.19140000
H        1.06170000      -2.61800000      -1.03210000
H       -1.05790000      -2.52620000       1.10960000
H        0.68580000      -2.74310000       1.33440000
H        0.23820000      -1.13650000       3.12690000
