18
Properties=species:S:1:pos:R:3 gdb_33972=T pbc="F F F"
C        0.01120000      -1.21460000      -0.09640000
C        0.03850000      -0.01370000      -0.00910000
C        0.03000000       1.39970000       0.11830000
N        0.21120000       2.30790000      -1.06250000
C        1.14910000       2.40380000       0.07020000
C        0.47190000       3.27320000       1.13920000
C       -0.67840000       2.23810000       1.17530000
C       -2.15150000       2.44010000       1.33340000
C       -1.36180000       1.69690000       2.39150000
H       -0.00080000      -2.27340000      -0.17480000
H        0.66810000       1.75030000      -1.78540000
H        2.20860000       2.22330000      -0.06180000
H        1.03280000       3.31190000       2.07640000
H        0.21640000       4.28460000       0.81330000
H       -2.50250000       3.44010000       1.56620000
H       -2.81600000       1.86950000       0.69330000
H       -1.48840000       0.62110000       2.45930000
H       -1.18020000       2.18980000       3.34130000
