20
Properties=species:S:1:pos:R:3 gdb_98858=T pbc="F F F"
C        0.12660000       1.32900000       0.22720000
O       -0.09780000      -0.05290000      -0.05870000
C        0.56580000      -0.51820000      -1.14840000
O        1.31120000       0.14660000      -1.83700000
N        0.26210000      -1.82310000      -1.36790000
C       -0.25050000      -2.84880000      -0.45220000
C        0.36860000      -3.92390000      -1.38850000
C        1.03820000      -2.76620000      -2.19120000
C        0.79500000      -2.68260000      -3.68830000
H        1.18580000       1.52180000       0.41720000
H       -0.19790000       1.95750000      -0.60640000
H       -0.46420000       1.54660000       1.11780000
H        0.19570000      -2.80060000       0.54720000
H       -1.33960000      -2.85620000      -0.34950000
H        1.05040000      -4.63010000      -0.91460000
H       -0.37250000      -4.47530000      -1.97040000
H        2.11280000      -2.67660000      -1.98560000
H       -0.27190000      -2.77540000      -3.91580000
H        1.15000000      -1.72250000      -4.07180000
H        1.33260000      -3.48440000      -4.20590000
