20
Properties=species:S:1:pos:R:3 gdb_76779=T pbc="F F F"
C       -0.02330000       1.62370000       0.00640000
C        0.05520000       0.10440000       0.01720000
N        1.14150000      -0.48070000      -0.79320000
C        1.37520000      -0.52580000      -2.21150000
C        1.76010000      -1.12940000       0.25230000
O        2.72600000      -1.84930000       0.30660000
C        0.73540000      -0.57920000       1.22420000
C        0.99050000      -0.07390000       2.61440000
C        0.14480000      -1.30190000       2.39890000
H        0.94160000       2.06430000       0.27400000
H       -0.31370000       1.99730000      -0.98130000
H       -0.77500000       1.97260000       0.72240000
H       -0.92200000      -0.33340000      -0.23040000
H        1.53340000       0.47500000      -2.63060000
H        2.27710000      -1.12030000      -2.37750000
H        0.54050000      -0.99730000      -2.74690000
H        1.99310000      -0.20070000       3.00880000
H        0.49340000       0.84110000       2.91990000
H       -0.92530000      -1.21970000       2.55880000
H        0.57020000      -2.26930000       2.64420000
