23
Properties=species:S:1:pos:R:3 gdb_86558=T pbc="F F F"
O        0.73530000       0.32970000      -0.81980000
C       -0.06150000      -0.37180000       0.10030000
C        0.08160000      -0.10020000       1.62220000
C       -1.46280000      -0.27770000       1.75770000
C       -1.57770000      -0.05840000       0.21700000
C       -1.90140000      -1.65070000       2.23480000
C       -1.76950000      -2.00120000       3.74650000
C       -3.13190000      -2.73970000       3.65540000
C       -3.42390000      -1.95960000       2.34540000
H        0.61870000       1.27130000      -0.65420000
H        0.10410000      -1.42890000      -0.12670000
H        0.73070000      -0.75980000       2.20450000
H        0.38590000       0.93680000       1.80370000
H       -1.95990000       0.48400000       2.36720000
H       -1.77620000       0.99120000      -0.02740000
H       -2.27780000      -0.68420000      -0.34330000
H       -1.41410000      -2.43080000       1.63630000
H       -0.89530000      -2.57310000       4.06710000
H       -1.84040000      -1.10070000       4.36630000
H       -3.00060000      -3.80950000       3.46860000
H       -3.83180000      -2.61830000       4.48540000
H       -3.99690000      -1.04650000       2.53980000
H       -3.90030000      -2.49760000       1.52210000
