19
Properties=species:S:1:pos:R:3 gdb_1197=T pbc="F F F"
C        0.04750000       1.50960000       0.00980000
C        0.03660000       0.05320000       0.02200000
C        0.03940000      -1.15140000       0.03240000
C        0.01820000      -2.61050000       0.03510000
C       -1.40500000      -3.22160000       0.01220000
C       -1.32210000      -4.74500000      -0.13770000
C       -2.20680000      -2.82560000       1.25660000
H        0.85300000       1.89730000      -0.62410000
H       -0.89610000       1.91290000      -0.37450000
H        0.19460000       1.91770000       1.01610000
H        0.57920000      -2.98340000      -0.83220000
H        0.55020000      -2.98650000       0.92110000
H       -1.91690000      -2.81420000      -0.86940000
H       -0.80150000      -5.19530000       0.71630000
H       -2.32090000      -5.19020000      -0.18720000
H       -0.78160000      -5.03140000      -1.04640000
H       -3.22870000      -3.21510000       1.20550000
H       -1.74220000      -3.22990000       2.16450000
H       -2.25880000      -1.73850000       1.36200000
