17
Properties=species:S:1:pos:R:3 gdb_128118=T pbc="F F F"
C       -0.28210000       1.33450000      -0.10760000
N        0.04870000      -0.07180000       0.03620000
C        0.62380000      -0.75730000      -1.00580000
C        0.72760000      -2.12400000      -1.22870000
C        0.18280000      -3.21250000      -0.36610000
O       -1.14630000      -2.91310000       0.08840000
N        1.41060000      -2.31520000      -2.39060000
N        1.75090000      -1.17620000      -2.90630000
N        1.26680000      -0.20970000      -2.06250000
H        0.63130000       1.92960000      -0.22340000
H       -0.94370000       1.54690000      -0.96210000
H       -0.77580000       1.67560000       0.80410000
H       -0.64430000      -0.64320000       0.50240000
H        0.22640000      -4.16480000      -0.90940000
H        0.76340000      -3.33140000       0.55600000
H       -1.70570000      -2.86570000      -0.69500000
H        1.41180000       0.75960000      -2.28960000
