18
Properties=species:S:1:pos:R:3 gdb_49642=T pbc="F F F"
O        0.02760000       0.04910000      -0.23460000
C        0.07540000       1.24930000      -0.05740000
N        1.20750000       1.94600000       0.20920000
C        2.60580000       1.51490000       0.10080000
C        3.12350000       1.58120000      -1.36170000
C        3.20320000       3.13000000      -1.26030000
C        1.82010000       3.83290000      -1.33170000
C        1.51740000       3.37890000       0.12390000
C        3.03120000       3.01010000       0.30100000
H       -0.82170000       1.90410000      -0.05370000
H        2.87930000       0.67000000       0.73170000
H        4.12660000       1.14820000      -1.42550000
H        2.49170000       1.13590000      -2.13440000
H        4.04200000       3.62390000      -1.74950000
H        1.94190000       4.92030000      -1.36740000
H        1.11780000       3.52570000      -2.11240000
H        0.93140000       4.02780000       0.77700000
H        3.69250000       3.39050000       1.07340000
