19
Properties=species:S:1:pos:R:3 gdb_95336=T pbc="F F F"
O        0.12430000       1.43250000       0.06230000
C        0.02640000       0.00430000       0.04640000
C       -1.44760000      -0.46930000       0.13620000
C       -2.15930000      -0.57540000      -1.23310000
C       -1.37340000      -1.62240000      -2.00240000
O       -1.39240000      -1.64340000      -3.45990000
C        0.06410000      -1.64050000      -3.50980000
C        0.08590000      -1.27610000      -2.04660000
C        0.74310000      -0.51860000      -1.18220000
H       -0.18210000       1.75120000      -0.79410000
H        0.54410000      -0.30160000       0.96290000
H       -1.47550000      -1.45420000       0.62050000
H       -1.97150000       0.22530000       0.79790000
H       -3.21220000      -0.84290000      -1.10360000
H       -2.11960000       0.37700000      -1.77450000
H       -1.59770000      -2.62880000      -1.61540000
H        0.45890000      -2.63420000      -3.76440000
H        0.46020000      -0.90320000      -4.21730000
H        1.74340000      -0.13500000      -1.36470000
