16
Properties=species:S:1:pos:R:3 gdb_116999=T pbc="F F F"
C       -0.42470000       1.30440000      -0.21210000
C        0.49410000       0.15370000       0.20580000
N        1.13320000      -0.50650000      -0.92540000
C        0.63710000      -1.64710000      -1.47510000
O       -0.33990000      -2.24990000      -1.06900000
C        1.39820000      -2.12540000      -2.62710000
C        1.97590000      -2.56310000      -3.59420000
C        2.67680000      -3.11650000      -4.72880000
O        2.74840000      -2.57860000      -5.80830000
H        0.12650000       2.07610000      -0.75950000
H       -1.23130000       0.93780000      -0.85270000
H       -0.87110000       1.77090000       0.67150000
H        1.27920000       0.51220000       0.88010000
H       -0.07510000      -0.61570000       0.73140000
H        1.89950000      -0.04900000      -1.39420000
H        3.15640000      -4.09520000      -4.52880000
