13
Properties=species:S:1:pos:R:3 gdb_6621=T pbc="F F F"
C       -0.01380000       1.47730000       0.01010000
C       -0.00650000       0.02690000       0.00230000
C        0.00220000      -1.18380000      -0.00430000
C        0.01370000      -2.54080000      -0.01170000
C        0.01500000      -3.75320000      -0.01820000
C        0.11260000      -5.20430000      -0.02700000
N       -1.09530000      -5.83900000      -0.01890000
O        1.17920000      -5.78870000      -0.04020000
H        1.00590000       1.87800000       0.00240000
H       -0.53700000       1.87250000      -0.86770000
H       -0.51980000       1.86300000       0.90220000
H       -1.96120000      -5.32950000      -0.00790000
H       -1.10620000      -6.84570000      -0.02420000
