16
Properties=species:S:1:pos:R:3 gdb_65794=T pbc="F F F"
C       -0.03170000       1.54240000       0.04100000
C       -0.00910000       0.00140000      -0.03550000
C        0.80090000      -0.55180000      -1.24300000
C        1.94370000      -1.30630000      -0.61750000
C        1.92020000      -1.31060000       0.71960000
C        0.76460000      -0.54630000       1.22180000
O        0.45220000      -0.31710000       2.36110000
C       -1.37360000      -0.52330000      -0.02750000
N       -2.45130000      -0.94170000      -0.03760000
H        0.99150000       1.92820000       0.00320000
H       -0.59850000       1.96580000      -0.79180000
H       -0.48760000       1.85750000       0.98190000
H        0.19940000      -1.20680000      -1.88190000
H        1.16340000       0.25880000      -1.88590000
H        2.69920000      -1.78880000      -1.22830000
H        2.63020000      -1.78090000       1.38680000
