19
Properties=species:S:1:pos:R:3 gdb_64947=T pbc="F F F"
C        0.12030000       1.39960000      -0.46670000
C        0.03340000      -0.03160000       0.04360000
C        1.31510000      -0.85230000       0.10540000
C        0.68920000      -0.36050000       1.37820000
C       -1.18360000      -0.72690000      -0.28520000
C       -2.22080000      -1.27640000      -0.56200000
C       -3.43280000      -1.99220000      -0.93310000
C       -3.16610000      -3.08040000      -1.97540000
O       -3.69220000      -4.15970000      -1.96500000
H        1.07220000       1.85430000      -0.17550000
H        0.04760000       1.43120000      -1.55830000
H       -0.68930000       2.01100000      -0.05620000
H        1.24630000      -1.90880000      -0.12410000
H        2.22140000      -0.37020000      -0.24510000
H        1.16460000       0.46030000       1.90450000
H        0.19330000      -1.08130000       2.01690000
H       -3.92930000      -2.45630000      -0.07430000
H       -4.15890000      -1.29710000      -1.38300000
H       -2.44030000      -2.78450000      -2.76410000
