18
Properties=species:S:1:pos:R:3 gdb_95564=T pbc="F F F"
C       -0.15940000       1.46280000      -0.07180000
C        0.18360000      -0.03170000      -0.05330000
C        1.20840000      -0.39720000      -1.13320000
O        1.11040000      -1.75330000      -1.58050000
C        1.19960000      -2.76980000      -0.68890000
N        1.36980000      -2.81670000       0.55860000
C        1.55400000      -1.69830000       1.46140000
C        0.63610000      -0.47410000       1.34420000
O        0.31000000       0.13140000       2.33660000
H        0.74330000       2.07400000       0.03510000
H       -0.64860000       1.73600000      -1.01090000
H       -0.82000000       1.70650000       0.76080000
H       -0.72680000      -0.60760000      -0.27730000
H        1.02340000       0.19280000      -2.03340000
H        2.23350000      -0.18440000      -0.80430000
H        1.08690000      -3.70390000      -1.23940000
H        1.44590000      -2.05830000       2.48790000
H        2.58630000      -1.32110000       1.38940000
