19
Properties=species:S:1:pos:R:3 gdb_52251=T pbc="F F F"
O        0.33130000       1.40150000      -1.27520000
C        0.18630000       1.55540000      -0.07910000
N        1.11350000       1.24130000       0.85960000
C        2.41900000       0.68930000       0.51540000
C        3.39880000       1.74360000       0.00750000
C        3.88130000       2.87240000       0.99520000
C        5.31760000       2.38710000       0.78090000
N        5.34330000       0.97230000       1.22700000
C        4.86570000       1.30940000      -0.13950000
H       -0.73970000       1.96750000       0.37090000
H        0.90650000       1.44610000       1.82330000
H        2.83190000       0.20270000       1.40150000
H        2.26740000      -0.07040000      -0.25830000
H        3.01670000       2.17880000      -0.91800000
H        3.69360000       3.87410000       0.60420000
H        3.52350000       2.80970000       2.02710000
H        6.22580000       2.97700000       0.76710000
H        6.30390000       0.64400000       1.13090000
H        5.34680000       0.88450000      -1.01210000
