16
Properties=species:S:1:pos:R:3 gdb_125436=T pbc="F F F"
C        0.08900000       1.47130000       0.02160000
C        0.00960000      -0.01680000      -0.02930000
N        0.15610000      -0.77820000      -1.09930000
C        0.00690000      -2.04480000      -0.61240000
C        0.08670000      -3.27490000      -1.47300000
C        1.42720000      -3.52780000      -1.99670000
C        2.52810000      -3.74380000      -2.42550000
N       -0.22760000      -2.11600000       0.68700000
N       -0.22120000      -0.80640000       1.04400000
H        0.99280000       1.80630000       0.54220000
H        0.11870000       1.85640000      -0.99800000
H       -0.77410000       1.90480000       0.53710000
H       -0.24910000      -4.12910000      -0.87600000
H       -0.61450000      -3.16790000      -2.30980000
H        3.50160000      -3.92900000      -2.80620000
H       -0.37990000      -0.55070000       2.00470000
