23
Properties=species:S:1:pos:R:3 gdb_120319=T pbc="F F F"
C        0.03630000       1.54230000       0.08550000
C        0.20470000       0.02230000       0.02340000
C        0.52170000      -0.48790000      -1.38970000
C        0.66450000      -1.99310000      -1.43870000
C        1.34200000      -2.75410000      -2.57260000
C        2.27390000      -2.00000000      -3.52210000
C        3.54740000      -1.80740000      -2.66930000
O        3.13330000      -1.86580000      -1.30020000
C        1.99020000      -2.68050000      -1.21630000
H        0.94930000       2.05450000      -0.23800000
H       -0.77860000       1.87870000      -0.56570000
H       -0.19050000       1.87860000       1.10210000
H        1.00980000      -0.29000000       0.69960000
H       -0.70940000      -0.46410000       0.38940000
H       -0.27180000      -0.16980000      -2.08010000
H        1.44620000      -0.01340000      -1.73370000
H       -0.18530000      -2.52710000      -1.01550000
H        0.87520000      -3.66670000      -2.92420000
H        2.47890000      -2.58630000      -4.42180000
H        1.85640000      -1.04130000      -3.84480000
H        4.27550000      -2.60730000      -2.87360000
H        4.04240000      -0.84440000      -2.82560000
H        2.09180000      -3.52980000      -0.54700000
