16
Properties=species:S:1:pos:R:3 gdb_9923=T pbc="F F F"
C       -0.02820000       1.54620000       0.08810000
C        0.01390000       0.02840000       0.02200000
C       -1.14190000      -0.64270000       0.55310000
N       -2.06590000      -1.19160000       0.98410000
C        0.69270000      -0.70660000      -1.14720000
N        1.35830000       0.11180000      -2.13090000
C        1.36160000      -0.70840000       0.20070000
O        2.51220000       0.03660000       0.34980000
H        0.96580000       1.96290000      -0.07400000
H       -0.71510000       1.96370000      -0.65470000
H       -0.36920000       1.86420000       1.07660000
H        0.19670000      -1.61790000      -1.47610000
H        1.87370000      -0.47200000      -2.78160000
H        0.69940000       0.66080000      -2.67310000
H        1.35430000      -1.61060000       0.80260000
H        2.66640000       0.44800000      -0.51800000
