18
Properties=species:S:1:pos:R:3 gdb_54840=T pbc="F F F"
N        0.03970000       1.09720000      -0.01450000
H        0.24360000       0.10310000      -0.01890000
H        0.90820000       1.58690000      -0.21030000
H       -3.09890000       0.82660000       0.45490000
C       -0.51810000       1.51950000       1.22710000
C       -0.82820000       2.99230000       1.51470000
C       -0.55150000       2.74850000       3.03630000
C       -0.23200000       1.28120000       2.73910000
C       -1.40040000       0.62440000       2.04570000
C       -2.84810000       0.93170000       2.34450000
O       -3.30990000       1.14550000       3.43020000
O       -3.64480000       0.95400000       1.24170000
H       -0.08490000       3.65730000       1.06680000
H       -1.82330000       3.34590000       1.22580000
H        0.31800000       3.30530000       3.39060000
H       -1.38960000       2.92050000       3.71440000
H        0.52480000       0.67980000       3.22960000
H       -1.24140000      -0.43390000       1.83720000
