22
Properties=species:S:1:pos:R:3 gdb_9963=T pbc="F F F"
C        2.72140000       0.68510000       0.82770000
C        1.59920000      -0.31760000       0.52690000
C        1.55890000      -0.75040000      -0.92730000
O        1.33080000       0.32160000      -1.81890000
C        2.40340000      -1.89070000      -1.46700000
C        3.36270000      -2.71250000      -0.63150000
C        0.88510000      -2.02120000      -1.37000000
C        0.18640000      -2.97950000      -0.42910000
H        3.70720000       0.26090000       0.60830000
H        2.60440000       1.59790000       0.23410000
H        2.71180000       0.98080000       1.88100000
H        1.70820000      -1.18980000       1.17780000
H        0.63120000       0.13610000       0.77370000
H        2.14920000       0.82440000      -1.89080000
H        2.75580000      -1.71130000      -2.48030000
H        3.00970000      -2.86650000       0.39110000
H        3.51420000      -3.70350000      -1.07480000
H        4.34430000      -2.22930000      -0.56810000
H        0.37830000      -1.90490000      -2.32430000
H        0.71650000      -3.11280000       0.51710000
H       -0.82330000      -2.62640000      -0.19180000
H        0.08940000      -3.96930000      -0.88870000
