18
Properties=species:S:1:pos:R:3 gdb_39362=T pbc="F F F"
C       -0.05270000       1.60070000       0.33920000
N        1.14490000       0.84290000      -0.03790000
C        2.06430000       0.46620000       1.05960000
C        1.41730000      -0.11190000       2.35080000
N        0.48610000      -1.22180000       2.08430000
C       -0.22230000      -0.95410000       1.07030000
N       -1.13650000      -1.66530000       0.28700000
C       -0.89980000      -0.77280000      -0.89270000
C       -0.13140000       0.14670000       0.07570000
H       -0.17430000       1.95100000       1.36120000
H       -0.40160000       2.29060000      -0.42440000
H        2.74000000      -0.28920000       0.64390000
H        2.66610000       1.34560000       1.31060000
H        2.22270000      -0.47990000       2.99450000
H        0.91730000       0.68420000       2.91940000
H       -1.10070000      -2.67460000       0.21930000
H       -0.26370000      -1.21540000      -1.66620000
H       -1.81750000      -0.37850000      -1.33630000
