20
Properties=species:S:1:pos:R:3 gdb_63473=T pbc="F F F"
C       -0.05550000       1.53850000       0.03720000
C        0.00490000       0.02910000       0.04030000
O       -1.14900000      -0.59800000      -0.45580000
C        1.32540000      -0.68700000      -0.19800000
C        0.66670000      -0.71370000       1.17210000
O        1.22140000       0.10380000       2.17330000
C        0.06150000      -1.99140000       1.68240000
C        0.68070000      -2.70690000       2.82560000
N       -0.60410000      -2.00240000       2.99210000
H        0.81610000       1.97050000       0.53060000
H       -0.09650000       1.91750000      -0.99140000
H       -0.95420000       1.87840000       0.56090000
H       -1.19750000      -0.41740000      -1.40110000
H        1.30110000      -1.60010000      -0.78330000
H        2.22090000      -0.08360000      -0.30860000
H        2.11350000      -0.21260000       2.35240000
H       -0.45380000      -2.56570000       0.92020000
H        0.62720000      -3.79050000       2.88270000
H        1.56500000      -2.27620000       3.28930000
H       -0.41970000      -1.10840000       3.44460000
