19
Properties=species:S:1:pos:R:3 gdb_77382=T pbc="F F F"
C       -0.00870000       1.65150000       0.06040000
C        0.08210000       0.13080000       0.01880000
C        0.76810000      -0.60130000      -1.13480000
O        0.29950000      -0.74930000      -2.42550000
C        2.27020000      -0.72690000      -0.79730000
C        2.50010000      -0.11060000       0.58190000
C        1.08690000      -0.67150000       0.92060000
O        0.74010000      -1.06400000       2.20460000
C        1.25030000      -1.71230000      -0.25350000
H        0.95530000       2.13030000      -0.13600000
H       -0.71660000       2.01420000      -0.69320000
H       -0.36860000       2.00490000       1.03400000
H       -0.90690000      -0.31770000       0.16880000
H        0.58840000       0.01080000      -2.94220000
H        2.98920000      -0.91410000      -1.58480000
H        3.26440000      -0.66250000       1.13700000
H        2.67790000       0.96660000       0.67610000
H        0.62800000      -0.27360000       2.74450000
H        1.16740000      -2.78680000      -0.30970000
