18
Properties=species:S:1:pos:R:3 gdb_83718=T pbc="F F F"
N        0.01880000       1.47250000       0.19870000
C       -0.00930000       0.03260000       0.00930000
C       -1.42430000      -0.53400000      -0.08200000
N       -2.29960000       0.21380000      -1.02260000
C       -2.51080000      -1.00020000      -1.85290000
C       -1.33910000      -1.68280000      -1.11670000
O       -0.08230000      -1.54050000      -1.78590000
C        0.63400000      -0.48900000      -1.27760000
N        1.68870000      -0.02120000      -1.78570000
H        0.96520000       1.79360000       0.00690000
H       -0.56430000       1.87670000      -0.53230000
H        0.51300000      -0.44680000       0.84890000
H       -1.87060000      -0.77560000       0.88580000
H       -3.13430000       0.61310000      -0.61220000
H       -3.46280000      -1.51710000      -1.67560000
H       -2.37730000      -0.84640000      -2.92810000
H       -1.45670000      -2.72240000      -0.81140000
H        1.93720000      -0.51270000      -2.64540000
