19
Properties=species:S:1:pos:R:3 gdb_15367=T pbc="F F F"
C        0.48460000       1.43240000       0.03070000
C        0.60750000      -0.08420000      -0.09330000
N        0.91380000      -0.66840000       1.21180000
C       -0.20400000      -1.11340000       2.03650000
C        0.74160000      -2.10120000       1.44300000
C        0.28880000      -3.07500000       0.36590000
C        1.43580000      -3.49690000      -0.53110000
O        1.40970000      -3.48330000      -1.73410000
H        1.40410000       1.86020000       0.43910000
H        0.29130000       1.88380000      -0.94720000
H       -0.34000000       1.70360000       0.69820000
H       -0.31690000      -0.48910000      -0.53680000
H        1.42620000      -0.34010000      -0.77580000
H       -0.15990000      -0.86220000       3.09320000
H       -1.20320000      -1.07110000       1.60160000
H        1.51350000      -2.51480000       2.09290000
H       -0.08080000      -3.98260000       0.86640000
H       -0.52000000      -2.68570000      -0.25500000
H        2.34480000      -3.83700000       0.01940000
