19
Properties=species:S:1:pos:R:3 gdb_77874=T pbc="F F F"
C       -0.61780000       1.26400000      -0.20160000
C       -0.30430000      -0.20130000      -0.44280000
C        0.51300000      -0.81690000      -1.54740000
C        1.74340000       0.01800000      -1.94830000
C        1.65050000       1.31610000      -2.74170000
C        2.17480000      -0.02730000      -0.45510000
O        3.15420000       0.34470000       0.12720000
C        0.99730000      -0.89990000      -0.07660000
O        1.05090000      -2.00320000       0.74770000
H       -1.35960000       1.63340000      -0.91800000
H       -1.03480000       1.39680000       0.80270000
H        0.26670000       1.90010000      -0.26930000
H       -1.13280000      -0.85990000      -0.18220000
H        0.12390000      -1.64090000      -2.13240000
H        2.45990000      -0.64930000      -2.44950000
H        0.90290000       2.00280000      -2.34090000
H        2.61890000       1.82670000      -2.73350000
H        1.38900000       1.11350000      -3.78550000
H        0.82530000      -1.73130000       1.64400000
