14
Properties=species:S:1:pos:R:3 gdb_12325=T pbc="F F F"
N        0.01840000       1.31050000      -0.24760000
C       -0.07540000      -0.03990000      -0.08070000
N       -1.19150000      -0.65630000       0.02710000
C       -1.11300000      -2.10530000       0.12930000
C        0.09520000      -2.66780000      -0.59470000
O        1.31100000      -2.03850000      -0.13060000
C        1.28950000      -0.70720000       0.00660000
O        2.29160000      -0.08430000       0.25010000
H        0.90770000       1.71900000      -0.00430000
H       -0.81440000       1.84750000      -0.06510000
H       -1.09580000      -2.40470000       1.18790000
H       -2.02100000      -2.54260000      -0.30190000
H        0.23580000      -3.73590000      -0.41630000
H        0.01030000      -2.49750000      -1.67500000
