14
Properties=species:S:1:pos:R:3 gdb_28539=T pbc="F F F"
N        0.04130000       1.34280000      -0.12610000
C        0.01030000      -0.02960000      -0.06640000
N       -1.18580000      -0.61440000       0.02210000
C       -1.19200000      -1.95320000       0.01820000
C       -0.04060000      -2.71510000      -0.06680000
O       -0.07370000      -4.07840000      -0.06790000
C        1.15050000      -1.98170000      -0.14190000
O        2.30640000      -2.67950000      -0.21400000
N        1.19580000      -0.66480000      -0.14140000
H        0.91670000       1.77490000       0.11980000
H       -0.79220000       1.80270000       0.20260000
H       -2.15740000      -2.44800000       0.08940000
H        0.83490000      -4.39530000      -0.13050000
H        3.02190000      -2.03100000      -0.26460000
