21
Properties=species:S:1:pos:R:3 gdb_97056=T pbc="F F F"
C        0.07070000       1.37860000      -0.09680000
N       -0.08230000      -0.02050000       0.25720000
C       -1.18050000      -0.59900000       0.04280000
N       -1.47560000      -1.91210000       0.39100000
C       -2.62490000      -2.38840000      -0.38480000
C       -2.20250000      -2.97120000      -1.74520000
C       -3.46060000      -3.39150000       0.41150000
C       -3.33920000      -1.02920000      -0.55370000
O       -2.29150000      -0.05570000      -0.55730000
H        0.83990000       1.48240000      -0.87270000
H       -0.84740000       1.85610000      -0.45980000
H        0.42850000       1.93840000       0.77570000
H       -0.66900000      -2.51100000       0.49080000
H       -1.55490000      -3.84350000      -1.60620000
H       -3.07500000      -3.29200000      -2.32430000
H       -1.65370000      -2.22890000      -2.33270000
H       -3.70920000      -2.98910000       1.39680000
H       -4.38930000      -3.63060000      -0.11750000
H       -2.91220000      -4.32850000       0.55360000
H       -3.89260000      -0.94680000      -1.49220000
H       -4.01660000      -0.83110000       0.28590000
