19
Properties=species:S:1:pos:R:3 gdb_110871=T pbc="F F F"
O       -0.11710000       1.28660000      -0.59030000
C        0.02370000       0.04080000       0.08780000
C       -1.32330000      -0.63870000       0.07130000
C       -1.94530000      -1.32990000      -1.12180000
C       -0.88890000      -2.09320000      -1.92450000
C       -0.60400000      -2.96460000      -0.64890000
O        0.70100000      -3.03340000      -0.10610000
C       -1.59030000      -2.11880000       0.14380000
O       -2.45710000      -2.66450000       1.07670000
H        0.72690000       1.74560000      -0.54150000
H        0.78720000      -0.59130000      -0.37870000
H        0.33290000       0.19470000       1.13460000
H       -2.07880000      -0.09450000       0.63570000
H       -2.92650000      -1.04900000      -1.48160000
H       -1.29710000      -2.67680000      -2.75260000
H       -0.04630000      -1.49960000      -2.28890000
H       -1.02720000      -3.96940000      -0.77740000
H        1.21780000      -3.64820000      -0.63660000
H       -2.07060000      -2.54890000       1.95140000
