13
Properties=species:S:1:pos:R:3 gdb_127503=T pbc="F F F"
C       -0.03190000       1.37490000      -0.05340000
N        0.01430000      -0.07340000      -0.02120000
N        0.12940000      -0.79730000      -1.14410000
C        0.13540000      -2.04760000      -0.70010000
O        0.23510000      -3.12090000      -1.48680000
C        0.02150000      -2.03830000       0.70710000
N       -0.05340000      -0.75230000       1.09940000
C       -0.01460000      -3.12830000       1.60850000
N       -0.04160000      -4.03940000       2.32170000
H        0.88500000       1.76460000      -0.50160000
H       -0.89020000       1.70480000      -0.64330000
H       -0.12570000       1.71880000       0.97510000
H        0.29930000      -2.82100000      -2.40270000
