16
Properties=species:S:1:pos:R:3 gdb_20194=T pbc="F F F"
C       -0.01090000       1.47480000       0.06260000
C        1.22910000       1.98490000       0.00350000
C        2.26780000       0.86420000      -0.04150000
C        2.54730000       0.66850000       1.44860000
C        1.72360000      -0.25730000       1.96400000
C        0.91210000      -0.88890000       0.91050000
C        0.01270000       0.00930000      -0.07550000
C        1.42110000      -0.38650000      -0.40850000
H       -0.91600000       2.04220000       0.24460000
H        1.49780000       3.02350000       0.15810000
H        3.14250000       1.05340000      -0.66720000
H        3.19050000       1.33310000       2.01370000
H        1.61380000      -0.48420000       3.01790000
H        0.54200000      -1.90120000       1.02490000
H       -0.83650000      -0.52460000      -0.48630000
H        1.68250000      -1.03430000      -1.23710000
