21
Properties=species:S:1:pos:R:3 gdb_86560=T pbc="F F F"
O        0.69040000       0.53970000      -0.75340000
C       -0.06450000      -0.27040000       0.10880000
C        0.05810000      -0.09840000       1.64760000
C       -1.47360000      -0.37110000       1.75980000
C       -1.59760000      -0.05700000       0.23690000
C       -1.83290000      -1.79860000       2.13950000
C       -1.76150000      -2.15260000       3.64420000
O       -3.18240000      -2.38870000       3.70620000
C       -3.33950000      -2.11320000       2.29980000
H        0.51890000       1.45960000      -0.52510000
H        0.16490000      -1.29700000      -0.19060000
H        0.74330000      -0.75900000       2.18600000
H        0.30090000       0.93840000       1.90440000
H       -2.01590000       0.31640000       2.41650000
H       -1.85950000       0.99240000       0.06380000
H       -2.25670000      -0.68390000      -0.37000000
H       -1.30630000      -2.51350000       1.50050000
H       -1.18530000      -3.05070000       3.90030000
H       -1.45080000      -1.33230000       4.30510000
H       -4.01710000      -1.26810000       2.11860000
H       -3.70950000      -2.98760000       1.74970000
