19
Properties=species:S:1:pos:R:3 gdb_37392=T pbc="F F F"
C       -0.02180000       1.42110000      -0.18480000
C        1.29570000       0.73500000       0.02480000
C        2.00340000       0.76730000       1.37990000
C        1.14850000       1.47530000       2.45500000
C        0.49440000       0.10030000       2.60850000
C       -0.17300000      -0.61660000       1.35670000
C        1.02360000      -1.59270000       1.47030000
N        1.81060000      -0.54090000       2.18990000
N        0.02800000      -0.01720000       0.03590000
H       -0.41830000       2.07740000       0.58000000
H       -0.31210000       1.69410000      -1.19630000
H        1.93000000       0.55950000      -0.84120000
H        3.05300000       1.04840000       1.27900000
H        1.74510000       1.67450000       3.34920000
H        0.58010000       2.36710000       2.20000000
H        0.06830000      -0.21040000       3.56770000
H       -1.20090000      -0.97310000       1.45650000
H        0.86410000      -2.42220000       2.16550000
H        1.43040000      -1.96990000       0.52890000
