21
Properties=species:S:1:pos:R:3 gdb_68585=T pbc="F F F"
C       -0.12660000       1.52520000       0.03870000
C       -0.02450000      -0.00310000       0.00520000
C       -1.42040000      -0.59150000      -0.20990000
C        1.14350000      -0.61210000      -0.84150000
C        2.12940000      -0.21530000       0.27830000
C        0.88030000      -0.61150000       1.14170000
O        0.65570000      -0.21440000       2.45430000
C        0.81990000      -2.11030000       0.79210000
O        0.99610000      -2.03630000      -0.63720000
H        0.81370000       2.03730000       0.24430000
H       -0.51010000       1.89860000      -0.91720000
H       -0.83520000       1.82680000       0.81720000
H       -1.94800000      -0.03990000      -0.99530000
H       -1.38430000      -1.63900000      -0.51150000
H       -2.01850000      -0.50790000       0.70460000
H        1.29810000      -0.40610000      -1.89900000
H        3.02540000      -0.83450000       0.36740000
H        2.38410000       0.84010000       0.32200000
H        1.28120000      -0.66780000       3.03020000
H        1.63390000      -2.68900000       1.24960000
H       -0.13590000      -2.58020000       1.04630000
