14
Properties=species:S:1:pos:R:3 gdb_15287=T pbc="F F F"
N       -0.01880000      -1.05440000      -0.50030000
C       -0.00530000       0.03830000      -0.12580000
C        0.03520000       1.42230000       0.34790000
C        1.41620000       2.03490000       0.17350000
C        1.82500000       2.64130000      -1.13190000
C        1.57240000       3.54720000       0.06630000
C        0.40950000       4.38950000       0.08240000
N       -0.53810000       5.05340000       0.09840000
H       -0.71630000       2.00590000      -0.19480000
H       -0.26030000       1.44140000       1.40310000
H        2.19560000       1.54330000       0.74630000
H        2.85150000       2.53570000      -1.46120000
H        1.09170000       2.67070000      -1.92980000
H        2.43910000       3.98050000       0.55290000
