15
Properties=species:S:1:pos:R:3 gdb_29855=T pbc="F F F"
C        0.00600000       1.42560000      -0.00040000
N       -0.04910000      -0.02250000      -0.00140000
C       -0.04870000      -0.79200000      -1.15740000
C        0.01590000      -2.08530000      -0.71020000
O        0.02640000      -3.37660000      -1.16180000
C        0.07670000      -4.10150000       0.01270000
N        0.09350000      -3.44240000       1.11970000
C        0.05630000      -2.11070000       0.69740000
C        0.01850000      -0.80180000       1.13420000
H        1.03330000       1.79430000      -0.10210000
H       -0.59140000       1.81840000      -0.82680000
H       -0.41130000       1.80330000       0.93550000
H       -0.09230000      -0.33650000      -2.13110000
H        0.09980000      -5.17340000      -0.11460000
H        0.03270000      -0.35160000       2.11230000
