15
Properties=species:S:1:pos:R:3 gdb_27803=T pbc="F F F"
C       -0.01920000       1.49370000      -0.00720000
C        0.00150000      -0.00900000      -0.00420000
N       -0.02120000      -0.61410000      -1.16000000
C       -0.00380000      -1.97510000      -1.22540000
N       -0.02400000      -2.65580000      -2.28800000
O        0.04000000      -2.70970000       0.03720000
C        0.06160000      -2.04710000       1.18710000
O        0.10110000      -2.83930000       2.25640000
C        0.04470000      -0.69410000       1.25080000
H        0.87040000       1.88870000       0.49630000
H       -0.05280000       1.86520000      -1.03110000
H       -0.88980000       1.86460000       0.54550000
H       -0.00500000      -3.65280000      -2.08460000
H        0.10560000      -3.75720000       1.95120000
H        0.06310000      -0.18370000       2.20140000
