15
Properties=species:S:1:pos:R:3 gdb_34915=T pbc="F F F"
C        0.04780000      -1.21550000       0.04000000
C        0.02720000      -0.01460000       0.04090000
C       -0.00430000       1.44100000       0.03080000
C       -0.70770000       2.07470000       1.24700000
O       -0.07800000       1.86290000       2.50240000
C        0.16540000       3.10320000       1.83660000
C        1.46810000       3.12590000       1.05330000
O        2.20190000       1.90280000       1.13150000
C        1.38300000       2.11120000      -0.01010000
H        0.07380000      -2.27690000       0.05220000
H       -0.54750000       1.78270000      -0.86260000
H       -1.79460000       2.10860000       1.26380000
H       -0.19750000       3.99890000       2.33170000
H        2.05230000       4.03830000       0.97890000
H        1.90620000       2.17330000      -0.96150000
