20
Properties=species:S:1:pos:R:3 gdb_75185=T pbc="F F F"
C        0.00540000       1.55170000       0.04880000
C        0.00810000       0.04980000      -0.01940000
C       -0.05550000      -0.62060000      -1.17140000
C       -0.00840000      -2.11770000      -1.29510000
N        0.23510000      -2.76100000      -0.01200000
C       -0.36100000      -2.14380000       1.15780000
C        0.09940000      -0.68820000       1.29830000
C        1.01960000      -3.86990000       0.05980000
O        1.54890000      -4.42000000      -0.88420000
H        0.90820000       1.92450000       0.55020000
H       -0.03960000       2.00250000      -0.94600000
H       -0.84780000       1.92100000       0.63230000
H       -0.14030000      -0.08020000      -2.11110000
H       -0.94650000      -2.49050000      -1.73950000
H        0.79210000      -2.43640000      -1.97010000
H       -1.45640000      -2.17110000       1.07020000
H       -0.08890000      -2.73330000       2.03820000
H        1.13180000      -0.65480000       1.67390000
H       -0.51540000      -0.18370000       2.05480000
H        1.12840000      -4.22680000       1.10390000
