15
Properties=species:S:1:pos:R:3 gdb_28379=T pbc="F F F"
C       -0.03100000       1.50610000       0.00490000
C       -0.00880000       0.00810000      -0.03580000
N       -0.03780000      -0.62150000      -1.16420000
C       -0.01700000      -1.99960000      -1.18730000
C        0.03370000      -2.70250000      -0.03780000
O        0.05770000      -4.03620000       0.05170000
O        0.06580000      -2.09400000       1.16520000
C        0.04700000      -0.69480000       1.25400000
N        0.07670000      -0.11960000       2.38220000
H        0.85690000       1.89380000       0.51550000
H       -0.07270000       1.89480000      -1.01310000
H       -0.89290000       1.86620000       0.57660000
H       -0.04220000      -2.50010000      -2.14480000
H        0.09390000      -4.27780000       0.98630000
H        0.11370000      -0.79300000       3.14740000
