17
Properties=species:S:1:pos:R:3 gdb_8466=T pbc="F F F"
C        0.00670000       1.53430000       0.06750000
C       -0.00740000       0.03700000       0.07120000
C        1.10270000      -0.86950000      -0.37290000
C        0.57330000      -0.96220000       1.06830000
C        1.42040000      -0.79500000       2.29370000
C       -0.76370000      -1.68410000       0.96320000
O       -1.24490000      -2.68620000       1.41170000
N       -1.28390000      -0.70100000       0.09520000
H        1.01110000       1.91070000       0.28330000
H       -0.29010000       1.93150000      -0.91020000
H       -0.68490000       1.93040000       0.81710000
H        0.91210000      -1.66890000      -1.08390000
H        2.09220000      -0.42520000      -0.45230000
H        2.22160000      -0.06790000       2.12660000
H        0.82420000      -0.45300000       3.14560000
H        1.88750000      -1.74480000       2.57470000
H       -1.80600000      -0.94040000      -0.74210000
