20
Properties=species:S:1:pos:R:3 gdb_104509=T pbc="F F F"
C        0.26590000      -0.98490000       1.90580000
C        0.06190000      -0.46130000       0.47830000
C       -1.34220000      -0.68030000      -0.06740000
C       -2.46190000       0.07180000       0.65230000
C       -2.33610000       1.52570000       0.52430000
N       -2.22380000       2.67080000       0.41620000
C       -1.50830000      -0.88220000      -1.56310000
C       -1.70410000      -2.03790000      -0.61030000
O       -0.73560000      -3.03930000      -0.51110000
H        1.29960000      -0.82440000       2.22660000
H       -0.37700000      -0.47560000       2.63150000
H        0.05780000      -2.05740000       1.95580000
H        0.29250000       0.61030000       0.43320000
H        0.76990000      -0.96440000      -0.18500000
H       -3.43800000      -0.22080000       0.24980000
H       -2.47590000      -0.18100000       1.71860000
H       -2.37650000      -0.46360000      -2.06180000
H       -0.60070000      -0.88150000      -2.15730000
H       -2.72640000      -2.38310000      -0.44800000
H       -0.75650000      -3.55880000      -1.32150000
