19
Properties=species:S:1:pos:R:3 gdb_131803=T pbc="F F F"
O       -0.00670000       1.45980000      -0.15030000
C        0.06010000       0.04720000      -0.02800000
C       -1.36330000      -0.49340000      -0.03420000
C       -1.41710000      -2.02630000       0.09320000
C       -2.81370000      -2.57520000       0.07100000
C       -3.56960000      -3.02580000       1.13580000
N       -4.77150000      -3.40090000       0.63190000
N       -4.86240000      -3.23090000      -0.69940000
C       -3.67890000      -2.72960000      -1.04030000
H        0.89100000       1.80440000      -0.15430000
H        0.63110000      -0.39890000      -0.85950000
H        0.56670000      -0.24860000       0.90620000
H       -1.92210000      -0.03200000       0.78780000
H       -1.85580000      -0.17740000      -0.96080000
H       -0.83350000      -2.47390000      -0.72190000
H       -0.92100000      -2.33050000       1.02310000
H       -3.34330000      -3.10780000       2.18770000
H       -5.55740000      -3.78300000       1.12930000
H       -3.47760000      -2.49700000      -2.07660000
