22
Properties=species:S:1:pos:R:3 gdb_100094=T pbc="F F F"
C       -0.56590000       1.11820000       0.23230000
O       -0.23640000      -0.20650000      -0.13250000
C        0.77540000      -0.39940000      -1.14760000
C        0.26580000       0.11530000      -2.50230000
C        2.09720000       0.28210000      -0.76520000
C        0.94670000      -1.93280000      -1.23000000
C        1.61170000      -2.61100000      -0.02810000
N        0.96010000      -2.43610000       1.15790000
O        2.61620000      -3.28830000      -0.14210000
H        0.27510000       1.65070000       0.69550000
H       -0.92860000       1.70930000      -0.61840000
H       -1.37370000       1.04400000       0.96500000
H        0.13720000       1.20140000      -2.50220000
H        0.98200000      -0.12760000      -3.29250000
H       -0.69360000      -0.34760000      -2.75050000
H        2.40980000      -0.01000000       0.24090000
H        2.88450000      -0.01650000      -1.46310000
H        2.01780000       1.37220000      -0.80290000
H       -0.04650000      -2.37110000      -1.38000000
H        1.56330000      -2.18200000      -2.09500000
H        0.26050000      -1.71220000       1.22470000
H        1.41020000      -2.78090000       1.99040000
