21
Properties=species:S:1:pos:R:3 gdb_104010=T pbc="F F F"
C       -0.07610000       1.55050000       0.05270000
C       -0.02840000       0.02480000       0.13710000
C       -1.46660000      -0.52360000       0.08110000
O       -2.02600000      -0.32050000      -1.20270000
O        0.69380000      -0.51620000      -1.02110000
C        1.78280000      -1.23090000      -0.40370000
C        1.10510000      -2.01760000       0.74090000
C        0.86360000      -0.55810000       1.25750000
C        2.28950000      -0.25510000       0.68400000
H       -0.50230000       1.96530000       0.97290000
H        0.91010000       1.98940000      -0.10110000
H       -0.71900000       1.84330000      -0.78110000
H       -1.49280000      -1.58570000       0.35780000
H       -2.09830000       0.01840000       0.79360000
H       -1.36000000      -0.64720000      -1.82180000
H        2.40950000      -1.67650000      -1.17470000
H        0.25640000      -2.65300000       0.48760000
H        1.81550000      -2.56080000       1.36600000
H        0.58340000      -0.33480000       2.28650000
H        3.08220000      -0.67960000       1.30200000
H        2.54220000       0.76100000       0.38150000
