17
Properties=species:S:1:pos:R:3 gdb_13238=T pbc="F F F"
N        0.00950000      -1.18640000       0.04270000
C       -0.00320000      -0.03120000       0.06820000
C        0.00530000       1.42940000       0.09550000
C        1.41350000       2.01980000      -0.12550000
C        1.40670000       3.54250000      -0.08680000
C        1.24950000       4.22380000       1.29490000
O        2.53710000       4.85820000       1.18200000
C        2.78410000       4.24450000      -0.09830000
H       -0.68390000       1.79540000      -0.67470000
H       -0.39860000       1.75930000       1.06010000
H        2.09200000       1.63080000       0.64260000
H        1.79940000       1.67270000      -1.09070000
H        0.71810000       3.93660000      -0.84020000
H        0.43730000       4.95500000       1.38650000
H        1.20450000       3.53590000       2.15120000
H        3.64960000       3.56870000      -0.07140000
H        2.93930000       4.98850000      -0.88860000
