17
Properties=species:S:1:pos:R:3 gdb_26960=T pbc="F F F"
N        0.11740000       1.42960000       0.14370000
C        0.02610000       0.03410000       0.03800000
C       -1.03150000      -0.80820000      -0.19740000
N       -0.59680000      -2.11200000      -0.31450000
C        0.70200000      -2.06510000      -0.14660000
N        1.13600000      -0.78460000       0.06620000
N       -2.36960000      -0.37780000      -0.32010000
C       -3.21830000      -1.11090000      -1.27280000
C       -3.40940000      -1.28680000       0.18790000
H        0.35180000       1.73090000       1.08630000
H       -0.79240000       1.82040000      -0.08150000
H        1.37700000      -2.90750000      -0.15240000
H        2.08820000      -0.47180000       0.15410000
H       -3.90420000      -0.49450000      -1.84720000
H       -2.75210000      -1.93110000      -1.81020000
H       -3.06990000      -2.22380000       0.61910000
H       -4.23710000      -0.80100000       0.69720000
