15
Properties=species:S:1:pos:R:3 gdb_32057=T pbc="F F F"
O        0.06470000       1.42330000       0.00630000
C        0.01580000       0.01740000       0.00210000
C       -1.42290000      -0.42660000       0.01310000
C       -2.49960000       0.40940000       0.02340000
C       -3.77870000      -0.20900000       0.03250000
N       -4.01300000      -1.49380000       0.03170000
C       -2.93870000      -2.36880000       0.02120000
O       -3.01470000      -3.57720000       0.01930000
N       -1.65160000      -1.76220000       0.01220000
H        0.98620000       1.69690000      -0.00150000
H        0.50480000      -0.41080000      -0.88960000
H        0.52020000      -0.41660000       0.88240000
H       -2.37140000       1.48030000       0.02460000
H       -4.66090000       0.43280000       0.04090000
H       -0.88630000      -2.42370000       0.00480000
