16
Properties=species:S:1:pos:R:3 gdb_29982=T pbc="F F F"
C       -0.01410000       1.46340000      -0.00360000
N       -0.01090000       0.01840000       0.01250000
C       -0.05560000      -0.80830000      -1.09870000
C       -0.03780000      -2.14050000      -0.72380000
C        0.02070000      -2.10050000       0.68690000
C        0.03650000      -0.78940000       1.12190000
C        0.09580000      -0.81940000       2.54920000
C        0.11090000      -2.14980000       2.85740000
O        0.06610000      -2.95470000       1.74410000
H        0.89430000       1.86650000       0.45790000
H       -0.05760000       1.80800000      -1.03840000
H       -0.88260000       1.86340000       0.53160000
H       -0.09740000      -0.37370000      -2.08540000
H       -0.06380000      -2.98970000      -1.38620000
H        0.12390000      -0.00730000       3.25800000
H        0.15090000      -2.67290000       3.79840000
