22
Properties=species:S:1:pos:R:3 gdb_56142=T pbc="F F F"
C       -0.13330000       1.46080000      -0.11760000
C       -0.03510000      -0.02550000       0.19370000
O        0.81200000      -0.47330000       0.94710000
N       -0.95520000      -0.81040000      -0.43830000
C       -1.05590000      -2.23760000      -0.22440000
C       -2.52020000      -2.66780000       0.00480000
C       -2.61820000      -4.19540000       0.03020000
C       -3.09330000      -2.05720000       1.28380000
O       -3.32480000      -2.13700000      -1.06550000
H        0.80560000       1.78760000      -0.57280000
H       -0.96010000       1.71780000      -0.78480000
H       -0.24690000       2.00860000       0.82150000
H       -1.67570000      -0.39740000      -1.00890000
H       -0.66040000      -2.78560000      -1.09370000
H       -0.42350000      -2.48450000       0.63160000
H       -2.03710000      -4.61550000       0.85700000
H       -3.66030000      -4.50580000       0.14620000
H       -2.23090000      -4.62950000      -0.89980000
H       -3.02510000      -0.96730000       1.25460000
H       -4.14550000      -2.33320000       1.39110000
H       -2.54370000      -2.41260000       2.15990000
H       -3.13030000      -2.64650000      -1.86020000
