14
Properties=species:S:1:pos:R:3 gdb_128878=T pbc="F F F"
N        0.02010000      -1.19670000      -0.12290000
C       -0.00240000      -0.03970000      -0.06470000
C       -0.02870000       1.37040000       0.00590000
C       -1.10650000       2.23730000       0.15900000
C       -2.53080000       2.74410000       0.33110000
C       -1.87370000       4.18590000       0.33460000
N       -0.59760000       3.46870000       0.16660000
N        0.73460000       3.56080000       0.03450000
C        1.08370000       2.27490000      -0.06430000
H       -3.20420000       2.55310000      -0.50620000
H       -3.02080000       2.46550000       1.26560000
H       -2.13110000       4.82780000      -0.51020000
H       -1.94620000       4.73970000       1.27270000
H        2.12190000       2.00430000      -0.18480000
