19
Properties=species:S:1:pos:R:3 gdb_52324=T pbc="F F F"
O       -0.26590000       0.47430000       0.60620000
C        0.05330000       1.42450000      -0.05760000
C        1.48310000       1.90890000      -0.20250000
O        1.51510000       2.88920000      -1.21730000
C        2.77480000       3.51050000      -1.37480000
C        2.65010000       4.53090000      -2.52450000
C        2.85590000       5.89820000      -1.83500000
C        2.63860000       5.55790000      -0.35670000
O        3.15170000       4.22960000      -0.22320000
H       -0.68540000       2.03920000      -0.61850000
H        1.81640000       2.32000000       0.76150000
H        2.13370000       1.05130000      -0.43650000
H        3.54420000       2.74090000      -1.52370000
H        3.38870000       4.34260000      -3.30570000
H        1.65660000       4.43590000      -2.96700000
H        3.87710000       6.25870000      -1.98770000
H        2.16870000       6.66590000      -2.19760000
H        3.18860000       6.19600000       0.33820000
H        1.57200000       5.58560000      -0.09310000
