23
Properties=species:S:1:pos:R:3 gdb_38298=T pbc="F F F"
C       -0.00280000       1.46240000      -0.30130000
C        1.52530000       1.32540000      -0.04630000
C        1.14180000       0.17810000       0.93130000
C       -0.12730000      -0.05130000       0.05390000
C        0.08560000      -1.02220000      -1.15520000
C        0.38610000      -0.31170000      -2.51090000
C        1.88820000      -0.32990000      -2.10800000
C        1.53080000      -1.59590000      -1.27830000
C        2.35290000       0.88470000      -1.27400000
H       -0.46060000       2.06930000       0.48570000
H       -0.35810000       1.83280000      -1.26290000
H        2.02060000       2.19440000       0.39920000
H        1.84340000      -0.63720000       1.10780000
H        0.85450000       0.59380000       1.90180000
H       -1.03260000      -0.34120000       0.59260000
H       -0.72200000      -1.75800000      -1.17190000
H        0.21300000      -1.00310000      -3.34110000
H       -0.09560000       0.63540000      -2.75440000
H        2.60540000      -0.47280000      -2.92290000
H        2.10600000      -1.83470000      -0.38370000
H        1.52810000      -2.47860000      -1.92500000
H        2.42860000       1.74600000      -1.95220000
H        3.37700000       0.68190000      -0.93090000
