19
Properties=species:S:1:pos:R:3 gdb_122052=T pbc="F F F"
C        0.10850000       1.51920000       0.20680000
C        0.00810000       0.02380000      -0.10400000
C       -1.39630000      -0.51590000       0.11870000
O       -1.39690000      -1.90390000      -0.21040000
C       -2.63070000      -2.53850000      -0.11610000
C       -2.56060000      -3.83740000      -0.92060000
O       -3.47900000      -4.60640000      -1.01840000
C       -3.07360000      -2.86620000       1.31820000
O       -2.49140000      -2.48850000       2.29730000
H        1.12710000       1.88350000       0.04750000
H       -0.55780000       2.10750000      -0.43390000
H       -0.16060000       1.72930000       1.24750000
H        0.29900000      -0.17100000      -1.14270000
H        0.70000000      -0.54320000       0.52870000
H       -1.70380000      -0.37610000       1.16170000
H       -2.12020000       0.01230000      -0.52510000
H       -3.45340000      -1.94330000      -0.55900000
H       -1.56940000      -4.00050000      -1.39320000
H       -3.98840000      -3.49400000       1.36280000
