16
Properties=species:S:1:pos:R:3 gdb_125310=T pbc="F F F"
C       -0.01930000       1.51120000       0.03920000
C       -0.00720000       0.01900000       0.01800000
C       -0.02620000      -0.81940000      -1.03780000
C       -0.00260000      -2.27440000      -0.60320000
N        0.03150000      -2.11170000       0.83450000
N        0.06550000      -2.93350000       1.90140000
C        0.08110000      -2.04850000       2.89860000
N        0.06190000      -0.72950000       2.53780000
C        0.02970000      -0.81930000       1.21780000
H        0.87070000       1.89880000       0.54690000
H       -0.05200000       1.92300000      -0.97200000
H       -0.88490000       1.88380000       0.59780000
H       -0.05460000      -0.53370000      -2.08050000
H       -0.89270000      -2.82850000      -0.92290000
H        0.88030000      -2.81280000      -0.96660000
H        0.10940000      -2.37160000       3.92870000
