18
Properties=species:S:1:pos:R:3 gdb_56825=T pbc="F F F"
C       -0.09940000       1.54150000      -0.11160000
C        0.03470000       0.03730000       0.00240000
C        1.37460000      -0.64950000      -0.14170000
O        2.53660000       0.12300000      -0.23430000
C        0.68730000      -0.63600000       1.20080000
C        1.25770000       0.19440000       2.33780000
O        0.27070000       0.89070000       3.08420000
C        2.07030000      -0.66420000       3.22790000
N        2.66800000      -1.35210000       3.93850000
H        0.84230000       2.04950000       0.10840000
H       -0.39660000       1.82020000      -1.12820000
H       -0.85380000       1.92410000       0.58060000
H       -0.80850000      -0.51600000      -0.40320000
H        1.42060000      -1.60030000      -0.67090000
H        2.58250000       0.49560000      -1.12120000
H        0.25170000      -1.57770000       1.52330000
H        1.91800000       0.96310000       1.93160000
H       -0.33390000       0.24130000       3.46150000
