20
Properties=species:S:1:pos:R:3 gdb_86796=T pbc="F F F"
C        0.00730000       1.62520000       0.00520000
C        0.03300000       0.09290000       0.02960000
C        0.78290000      -0.54570000      -1.17020000
C        1.48640000      -1.80960000      -0.61250000
C        2.86390000      -2.06020000      -1.26900000
C        3.51960000      -3.26580000      -0.76660000
N        4.01940000      -4.22260000      -0.35350000
C        1.54210000      -1.52820000       0.87360000
C        0.75890000      -0.50770000       1.21460000
H        1.02400000       2.03330000       0.01380000
H       -0.49830000       1.99610000      -0.89260000
H       -0.52290000       2.02640000       0.87520000
H       -1.00990000      -0.25980000       0.04130000
H        0.12710000      -0.76540000      -2.01700000
H        1.54420000       0.16090000      -1.52510000
H        0.87400000      -2.70410000      -0.79460000
H        2.75050000      -2.15460000      -2.35520000
H        3.52260000      -1.20260000      -1.08880000
H        2.12640000      -2.13710000       1.55470000
H        0.60670000      -0.14760000       2.22700000
