22
Properties=species:S:1:pos:R:3 gdb_116791=T pbc="F F F"
C        0.36960000       0.58400000       0.58290000
O       -0.08920000       0.05920000      -0.65460000
C        0.67370000      -0.92310000      -1.18740000
N        0.33020000      -1.46410000      -2.26760000
C        1.13690000      -2.51380000      -2.86630000
C        2.41100000      -2.97990000      -2.16710000
C        2.31670000      -3.83700000      -0.86810000
C        3.45530000      -4.73640000      -1.41780000
C        3.18050000      -4.15790000      -2.83190000
H        0.38390000      -0.18300000       1.36750000
H        1.37170000       1.02190000       0.49100000
H       -0.33480000       1.36740000       0.86560000
H        1.56550000      -1.16110000      -0.59320000
H        0.47750000      -3.38260000      -3.00880000
H        1.39380000      -2.18220000      -3.88310000
H        3.09190000      -2.13350000      -2.01580000
H        2.48320000      -3.34060000       0.09180000
H        1.36180000      -4.37070000      -0.81650000
H        4.43370000      -4.42860000      -1.03780000
H        3.35870000      -5.81640000      -1.28420000
H        2.50250000      -4.79830000      -3.40660000
H        4.03900000      -3.91240000      -3.46180000
