16
Properties=species:S:1:pos:R:3 gdb_76078=T pbc="F F F"
C        0.15890000       1.49900000      -0.23930000
N        0.19120000       0.04600000      -0.06860000
C        1.47120000      -0.66400000      -0.20760000
C        2.70300000       0.04000000      -0.46680000
N        3.70510000       0.57900000      -0.67950000
C        0.78730000      -0.51010000       1.12790000
C        1.27300000       0.38570000       2.26220000
N        2.57480000       0.23900000       2.63070000
O        0.48660000       1.11030000       2.83810000
H        1.08050000       2.01260000       0.06510000
H       -0.03010000       1.71410000      -1.29400000
H       -0.66390000       1.88810000       0.36260000
H        1.40910000      -1.61830000      -0.72510000
H        0.27200000      -1.39120000       1.50930000
H        3.25180000      -0.17420000       2.01060000
H        2.91880000       0.86670000       3.34220000
