19
Properties=species:S:1:pos:R:3 gdb_14967=T pbc="F F F"
C        0.13800000       1.51970000      -0.06880000
C       -0.05730000       0.01020000       0.04410000
C       -1.49980000      -0.42740000       0.07780000
N       -2.46360000       0.39540000       0.09430000
C       -3.83310000      -0.10580000       0.07180000
C       -3.93770000      -1.55510000      -0.41160000
C       -2.86210000      -2.36740000       0.29510000
O       -1.56710000      -1.79240000       0.08550000
H        1.20440000       1.76430000      -0.08200000
H       -0.31900000       1.90690000      -0.98280000
H       -0.32930000       2.03880000       0.77110000
H        0.42600000      -0.51390000      -0.79020000
H        0.42940000      -0.38090000       0.94720000
H       -4.25690000      -0.00960000       1.08130000
H       -4.42560000       0.55870000      -0.56720000
H       -4.92720000      -1.97760000      -0.20860000
H       -3.77200000      -1.60300000      -1.49400000
H       -3.05670000      -2.40790000       1.37570000
H       -2.79570000      -3.39240000      -0.07800000
