19
Properties=species:S:1:pos:R:3 gdb_78759=T pbc="F F F"
C       -0.00640000       1.54710000       0.04890000
C        0.04280000       0.04270000       0.06640000
C       -1.26310000      -0.80540000       0.16180000
C       -0.38410000      -1.87590000       0.80360000
O       -0.79000000      -2.95110000       1.56590000
C        0.97310000      -1.86680000       0.07130000
C        0.66450000      -0.88150000       1.19410000
C        0.93080000      -0.74620000      -0.95440000
O        0.48900000      -0.96240000      -2.27280000
H        0.99990000       1.97640000       0.10640000
H       -0.46720000       1.90200000      -0.88030000
H       -0.59030000       1.94370000       0.88630000
H       -1.95590000      -0.37930000       0.89310000
H       -1.80710000      -1.02440000      -0.76770000
H       -0.99440000      -3.68560000       0.97650000
H        1.63100000      -2.72560000       0.12590000
H        1.18150000      -0.68540000       2.12100000
H        1.90820000      -0.26070000      -1.04460000
H       -0.29670000      -1.51690000      -2.23940000
