16
Properties=species:S:1:pos:R:3 gdb_33621=T pbc="F F F"
N        0.02520000      -1.17350000      -0.00920000
C       -0.00640000      -0.01610000       0.01680000
C       -0.04520000       1.40930000       0.05240000
C       -0.69190000       2.34040000       1.12810000
C       -0.93460000       3.32920000       0.01260000
C        0.38350000       3.34580000       0.79080000
C        1.22140000       2.36520000      -0.06180000
C        0.88300000       2.64030000      -1.54540000
C       -0.57430000       2.34280000      -1.12210000
H       -1.22850000       2.12700000       2.04150000
H       -1.61730000       4.16660000      -0.01320000
H        0.72010000       4.19610000       1.36680000
H        2.20940000       2.06910000       0.28380000
H        1.11120000       3.62890000      -1.95280000
H        1.28020000       1.85990000      -2.20140000
H       -1.34830000       2.02460000      -1.81720000
