21
Properties=species:S:1:pos:R:3 gdb_107421=T pbc="F F F"
C       -0.32040000       1.48610000      -0.02440000
C        0.14970000       0.03040000       0.09510000
C        0.82260000      -0.48910000      -1.15750000
C        0.01650000      -0.92590000      -2.36020000
C        0.80530000      -1.95120000      -1.58310000
C        2.20360000      -2.35920000      -2.05890000
C        3.04260000      -1.08940000      -2.00660000
O        2.58940000      -0.03140000      -2.86350000
C        2.22130000       0.01140000      -1.47680000
H        0.51690000       2.16250000      -0.22690000
H       -1.03830000       1.59880000      -0.84300000
H       -0.80220000       1.82240000       0.89900000
H        0.83610000      -0.06580000       0.94780000
H       -0.70870000      -0.61190000       0.32620000
H       -1.06280000      -0.95070000      -2.24510000
H        0.36930000      -0.62860000      -3.33980000
H        0.24220000      -2.67600000      -1.00370000
H        2.63400000      -3.09680000      -1.37140000
H        2.20670000      -2.80640000      -3.05920000
H        4.12260000      -1.15000000      -1.88820000
H        2.63290000       0.84680000      -0.91560000
