13
Properties=species:S:1:pos:R:3 gdb_2132=T pbc="F F F"
C        0.00420000       1.51680000      -0.01710000
C       -0.05170000       0.02710000      -0.00230000
C       -1.06880000      -0.82210000      -0.15680000
C       -0.56550000      -2.23060000      -0.05070000
O        0.83620000      -2.10910000       0.17930000
C        1.18140000      -0.78160000       0.21490000
O        2.30640000      -0.40760000       0.39500000
H        0.68740000       1.86670000      -0.79830000
H       -0.98090000       1.95670000      -0.18710000
H        0.40140000       1.89450000       0.93100000
H       -2.10960000      -0.58100000      -0.33300000
H       -1.01850000      -2.78360000       0.78220000
H       -0.72900000      -2.81200000      -0.96730000
