17
Properties=species:S:1:pos:R:3 gdb_78461=T pbc="F F F"
O        0.08480000       1.39830000       0.02230000
C        0.09290000       0.00470000      -0.02370000
C       -0.31490000      -0.76940000       1.20750000
C       -1.22470000      -0.73370000      -0.03300000
C       -1.26350000      -2.23970000      -0.31170000
O       -1.47230000      -2.80410000       1.04340000
C       -0.10220000      -2.28530000       1.27180000
C        0.20080000      -2.74910000      -0.18200000
O        0.34320000      -4.13170000      -0.32620000
H       -0.65160000       1.69010000       0.57040000
H        0.92390000      -0.30950000      -0.64220000
H       -0.54760000      -0.22590000       2.11720000
H       -2.14700000      -0.16320000      -0.06360000
H       -1.95660000      -2.62700000      -1.05790000
H        0.38990000      -2.71890000       2.14180000
H        1.00340000      -2.28950000      -0.75740000
H       -0.37550000      -4.52240000       0.18970000
