21
Properties=species:S:1:pos:R:3 gdb_116923=T pbc="F F F"
C       -0.97660000       1.46260000       0.09020000
O       -1.38220000       0.12320000      -0.06190000
C       -0.27700000      -0.75360000      -0.19360000
C       -0.73050000      -2.12690000      -0.35120000
C       -1.07750000      -3.27390000      -0.48390000
C       -1.50160000      -4.63080000      -0.65780000
C       -1.04010000      -5.71150000       0.31520000
C       -2.47690000      -5.28380000       0.32150000
C       -3.05810000      -4.50920000       1.48030000
H       -1.88200000       2.06680000       0.18240000
H       -0.35970000       1.60590000       0.99230000
H       -0.39810000       1.81840000      -0.77790000
H        0.33870000      -0.46140000      -1.06300000
H        0.37900000      -0.67290000       0.69160000
H       -1.60230000      -4.94520000      -1.69280000
H       -0.77460000      -6.67670000      -0.10170000
H       -0.41380000      -5.38530000       1.13810000
H       -3.17070000      -5.97170000      -0.15490000
H       -2.33360000      -3.79480000       1.88000000
H       -3.94320000      -3.94270000       1.17250000
H       -3.35430000      -5.18580000       2.28930000
