20
Properties=species:S:1:pos:R:3 gdb_7669=T pbc="F F F"
C        0.19190000       1.48870000       0.04900000
C        0.02820000      -0.02460000      -0.00500000
C       -1.43130000      -0.43420000      -0.20970000
C        0.98760000      -0.79800000      -0.98170000
C        1.48700000      -1.68820000       0.18860000
C        2.69850000      -1.11670000       0.93850000
O        1.85750000      -0.23740000       1.72280000
C        0.65630000      -0.82280000       1.17750000
H        1.22040000       1.75900000       0.30040000
H       -0.06250000       1.94090000      -0.91650000
H       -0.46420000       1.93130000       0.80750000
H       -1.80900000      -0.06340000      -1.16910000
H       -1.54820000      -1.52430000      -0.20720000
H       -2.06810000      -0.02840000       0.58450000
H        0.46640000      -1.33850000      -1.77590000
H        1.77010000      -0.18560000      -1.44010000
H        1.40580000      -2.76910000       0.08660000
H        3.22150000      -1.83700000       1.58150000
H        3.43690000      -0.56720000       0.34070000
H       -0.01280000      -1.19390000       1.96120000
