25
Properties=species:S:1:pos:R:3 gdb_57338=T pbc="F F F"
C        0.11780000       1.54420000       0.07260000
C        0.01290000       0.00680000       0.00010000
C        0.58580000      -0.58730000       1.30220000
C       -1.48730000      -0.35990000      -0.07220000
C        0.80560000      -0.54490000      -1.26780000
C        2.21220000       0.06980000      -1.39150000
C        0.92150000      -2.08380000      -1.25400000
C        0.00250000      -0.17380000      -2.51590000
O        0.17790000       0.80870000      -3.19160000
H        1.13320000       1.87270000       0.30950000
H       -0.17820000       2.01640000      -0.86820000
H       -0.54090000       1.92150000       0.86180000
H        0.10400000      -0.11140000       2.16320000
H        0.40340000      -1.66260000       1.38180000
H        1.66220000      -0.41730000       1.39720000
H       -1.99710000       0.15090000      -0.89520000
H       -1.65300000      -1.43530000      -0.18610000
H       -1.98390000      -0.05220000       0.85380000
H        2.77970000      -0.03410000      -0.46300000
H        2.77390000      -0.44150000      -2.17980000
H        2.16360000       1.12460000      -1.66210000
H       -0.04520000      -2.57790000      -1.12000000
H        1.34280000      -2.43950000      -2.20080000
H        1.58730000      -2.42160000      -0.45630000
H       -0.79550000      -0.90310000      -2.78610000
