17
Properties=species:S:1:pos:R:3 gdb_5078=T pbc="F F F"
C        0.02070000       1.51720000       0.04830000
C        0.02120000       0.01950000       0.01870000
C       -0.02280000      -0.80410000      -1.08580000
N       -0.00400000      -2.10360000      -0.65630000
C        0.05230000      -2.15640000       0.72440000
C        0.08540000      -3.42930000       1.49860000
C        0.06840000      -0.84790000       1.15150000
O        0.12180000      -0.48190000       2.47190000
H        0.92270000       1.92530000       0.52460000
H       -0.01920000       1.92790000      -0.96440000
H       -0.84230000       1.92340000       0.59350000
H       -0.06580000      -0.55890000      -2.13530000
H       -0.02750000      -2.91000000      -1.25420000
H        0.96210000      -4.04540000       1.25860000
H        0.12680000      -3.19840000       2.56550000
H       -0.80490000      -4.04890000       1.32790000
H        0.12210000       0.47790000       2.51860000
