18
Properties=species:S:1:pos:R:3 gdb_69240=T pbc="F F F"
C       -0.00200000       1.51850000       0.02920000
C       -0.01240000       0.00370000      -0.01280000
C       -0.85920000      -0.74670000       0.98670000
C        0.64970000      -0.76980000       1.13790000
C        1.43130000      -2.00810000       0.85870000
O        2.14350000      -2.55150000       1.68120000
N        1.31160000      -2.50500000      -0.42830000
C        0.74880000      -1.80710000      -1.49790000
C        0.14830000      -0.62300000      -1.34850000
H        0.93540000       1.91910000      -0.37090000
H       -0.82450000       1.92850000      -0.56820000
H       -0.11820000       1.88740000       1.05280000
H       -1.40130000      -0.17200000       1.72980000
H       -1.35670000      -1.65200000       0.65790000
H        1.06130000      -0.20660000       1.96740000
H        1.86430000      -3.32940000      -0.60850000
H        0.84050000      -2.30150000      -2.45740000
H       -0.25190000      -0.11120000      -2.21570000
