21
Properties=species:S:1:pos:R:3 gdb_64197=T pbc="F F F"
C       -0.24920000       1.50310000       0.12740000
C       -0.04570000      -0.00330000      -0.01460000
C       -1.33590000      -0.70180000      -0.43660000
C        1.19870000      -0.40400000      -0.84550000
O        1.82820000      -1.00750000       0.30300000
C        0.72780000      -0.68440000       1.15850000
C        1.05080000      -0.00430000       2.50460000
O        0.36800000      -1.03960000       3.23900000
C        0.15930000      -1.81410000       2.04150000
H        0.67620000       2.01120000       0.41630000
H       -0.58260000       1.93400000      -0.82330000
H       -1.01100000       1.73420000       0.88000000
H       -1.68670000      -0.30690000      -1.39670000
H       -1.19260000      -1.78070000      -0.55340000
H       -2.13410000      -0.54410000       0.29690000
H        1.02130000      -1.13410000      -1.64490000
H        1.79100000       0.42830000      -1.24580000
H        2.12850000       0.01960000       2.71260000
H        0.61840000       0.98560000       2.69030000
H       -0.89400000      -2.08460000       1.90460000
H        0.77910000      -2.71970000       2.01170000
