18
Properties=species:S:1:pos:R:3 gdb_95050=T pbc="F F F"
C       -0.08150000       1.55240000      -0.07450000
C        0.04080000       0.04180000       0.01690000
O        0.79610000      -0.44210000      -1.09860000
C        1.17040000      -1.77490000      -0.79400000
C        1.53390000      -1.77420000       0.69490000
N        2.78690000      -1.09470000       1.04310000
C        2.20090000       0.07640000       1.46550000
O        2.65060000       1.12890000       1.83030000
C        0.78250000      -0.51630000       1.24360000
H        0.89840000       2.02760000       0.00330000
H       -0.54140000       1.83120000      -1.02620000
H       -0.71110000       1.92930000       0.73700000
H       -0.96460000      -0.41530000      -0.00800000
H        0.33110000      -2.47120000      -0.96160000
H        1.99560000      -2.05850000      -1.45330000
H        1.39080000      -2.73540000       1.19320000
H        3.73820000      -1.27580000       0.75440000
H        0.16920000      -0.62380000       2.13770000
