21
Properties=species:S:1:pos:R:3 gdb_88751=T pbc="F F F"
C       -0.04530000       1.52150000      -0.25290000
C        0.02680000       0.02420000      -0.04320000
C        1.33830000      -0.71580000      -0.14830000
C        0.63890000      -0.60780000       1.18930000
C        1.23330000       0.19530000       2.31440000
C        0.29320000       0.67240000       3.49280000
C        1.17350000      -0.12940000       4.45780000
O        1.14640000      -1.49340000       4.01630000
C        2.04690000      -0.58810000       3.36680000
H        0.85250000       2.03030000       0.11030000
H       -0.14380000       1.75940000      -1.31800000
H       -0.90660000       1.95820000       0.26530000
H       -0.83630000      -0.50850000      -0.43550000
H        1.36690000      -1.67790000      -0.64820000
H        2.23380000      -0.11730000      -0.29220000
H        0.14730000      -1.51040000       1.54090000
H        1.81710000       1.04080000       1.93960000
H        0.33530000       1.75270000       3.65040000
H       -0.74940000       0.34870000       3.44520000
H        1.38330000       0.04440000       5.50670000
H        3.09640000      -0.86090000       3.35680000
