20
Properties=species:S:1:pos:R:3 gdb_8158=T pbc="F F F"
C        0.70350000       1.42980000       0.10170000
C       -0.11100000       0.14500000      -0.09430000
C        0.40990000      -0.71300000      -1.28640000
C        1.26480000      -1.78750000      -0.65050000
O        2.22320000      -1.27900000       0.29310000
C        0.99980000      -1.85740000       0.79400000
C        1.15340000      -3.09030000       1.64170000
C       -0.03770000      -0.80040000       1.14030000
H        1.75390000       1.19430000       0.28910000
H        0.64660000       2.06860000      -0.78660000
H        0.32270000       2.00810000       0.95080000
H       -1.15240000       0.42880000      -0.27650000
H       -0.41570000      -1.19270000      -1.82660000
H        0.96660000      -0.11170000      -2.01310000
H        1.59830000      -2.64830000      -1.22700000
H        1.91780000      -3.75130000       1.22560000
H        1.45340000      -2.82470000       2.66150000
H        0.20850000      -3.64080000       1.70460000
H        0.21910000      -0.25890000       2.05760000
H       -0.99920000      -1.29780000       1.31780000
