19
Properties=species:S:1:pos:R:3 gdb_83402=T pbc="F F F"
C        0.00530000       1.44150000      -0.36240000
C        0.13520000      -0.03620000      -0.07300000
C        1.43340000      -0.73940000       0.03710000
O        2.45700000       0.07910000       0.59250000
C        1.72640000       0.19470000       1.84310000
C        0.54450000      -0.60170000       1.29250000
C       -0.25160000      -1.66490000       1.94740000
C        0.00380000      -1.90940000       3.42450000
O       -1.06400000      -2.31950000       1.32420000
H        0.90140000       1.98600000      -0.05620000
H       -0.12600000       1.60220000      -1.43740000
H       -0.86080000       1.87300000       0.14890000
H       -0.63950000      -0.67590000      -0.48960000
H        1.73240000      -1.62940000      -0.50580000
H        2.27030000      -0.31880000       2.64290000
H        1.55040000       1.23820000       2.12810000
H       -0.08430000      -0.97900000       3.99700000
H       -0.71050000      -2.64390000       3.79750000
H        1.02160000      -2.28570000       3.57900000
