14
Properties=species:S:1:pos:R:3 gdb_50899=T pbc="F F F"
O       -0.16200000       0.10220000      -0.00620000
C        0.09100000       1.27420000      -0.06330000
C        1.48560000       1.81000000      -0.37720000
C        1.42460000       3.07820000      -1.19430000
O        0.64360000       3.97570000      -1.02180000
O        2.36860000       3.07300000      -2.17250000
C        2.40930000       4.24650000      -2.99370000
C        3.25970000       5.28420000      -2.40240000
N        3.93790000       6.10240000      -1.95100000
H       -0.66900000       2.05970000       0.12250000
H        1.94610000       2.07700000       0.58490000
H        2.09780000       1.03900000      -0.84480000
H        2.82720000       3.92920000      -3.95100000
H        1.40090000       4.64230000      -3.13780000
