15
Properties=species:S:1:pos:R:3 gdb_54880=T pbc="F F F"
C        0.22410000       1.01760000      -0.95890000
C       -0.07900000       0.28140000       0.32460000
O        0.67690000       0.21720000       1.25930000
C       -1.44400000      -0.45120000       0.34580000
N       -1.31040000      -1.66240000      -0.48480000
C       -1.52140000      -2.64340000       0.30930000
N       -1.83530000      -2.31540000       1.61700000
C       -1.83890000      -0.92530000       1.75190000
O       -2.10290000      -0.29720000       2.74140000
H        1.25510000       1.37240000      -0.95230000
H        0.04780000       0.35720000      -1.81350000
H       -0.45630000       1.87140000      -1.06150000
H       -2.21690000       0.20530000      -0.06930000
H       -1.47770000      -3.68500000       0.00850000
H       -2.02990000      -2.95520000       2.37010000
