18
Properties=species:S:1:pos:R:3 gdb_95742=T pbc="F F F"
C        0.01790000       1.53630000      -0.06300000
C        0.00280000       0.00890000      -0.00280000
O        0.61710000      -0.46150000      -1.19060000
C        0.93060000      -1.84260000      -1.15210000
C        2.00780000      -2.12930000      -0.10480000
C        1.61660000      -1.46650000       1.20070000
C        0.67820000      -0.51080000       1.23760000
C        2.26550000      -1.90420000       2.39570000
N        2.81150000      -2.28190000       3.34520000
H        1.04650000       1.90660000      -0.06090000
H       -0.47230000       1.87060000      -0.98060000
H       -0.51280000       1.96110000       0.79380000
H       -1.05170000      -0.32890000       0.02290000
H        0.02840000      -2.43560000      -0.93140000
H        1.27400000      -2.10910000      -2.15500000
H        2.11940000      -3.20950000       0.04030000
H        2.98070000      -1.75150000      -0.44120000
H        0.37350000      -0.07320000       2.18360000
