17
Properties=species:S:1:pos:R:3 gdb_26084=T pbc="F F F"
C       -0.12930000       1.51230000       0.04010000
C        0.07990000      -0.01290000      -0.01600000
C        0.78500000      -0.39240000      -1.25440000
N        1.33000000      -0.65720000      -2.23770000
N        0.77140000      -0.53100000       1.15270000
C        2.10300000      -0.34840000       1.45450000
C        2.33790000      -0.90240000       2.68920000
C        1.10520000      -1.43520000       3.16030000
C        0.15950000      -1.19210000       2.19470000
H        0.83130000       2.03120000       0.06210000
H       -0.69110000       1.85180000      -0.83380000
H       -0.68620000       1.76320000       0.94570000
H       -0.89850000      -0.50390000      -0.04300000
H        2.76420000       0.13680000       0.75450000
H        3.29150000      -0.93340000       3.19320000
H        0.93470000      -1.94710000       4.09470000
H       -0.89200000      -1.42870000       2.15010000
