16
Properties=species:S:1:pos:R:3 gdb_46268=T pbc="F F F"
O       -0.06120000       0.02290000      -0.40500000
C       -0.06000000       1.18500000      -0.13490000
C       -1.07610000       2.22300000       0.35520000
O       -0.02570000       3.21570000       0.35220000
C        0.98790000       2.30230000      -0.11500000
C        2.32300000       2.29040000       0.66960000
N        3.10900000       2.75450000      -0.52890000
C        2.88840000       1.72400000      -1.55790000
C        1.81840000       2.71770000      -1.32490000
H       -1.88780000       2.45590000      -0.34470000
H       -1.49220000       2.04390000       1.35390000
H        2.31010000       3.06600000       1.43780000
H        2.66110000       1.33930000       1.09290000
H        3.50980000       1.86030000      -2.43720000
H        2.73600000       0.68950000      -1.25860000
H        1.53630000       3.49490000      -2.02670000
