17
Properties=species:S:1:pos:R:3 gdb_45995=T pbc="F F F"
N       -0.10330000       1.17990000       0.33230000
C       -0.10980000      -0.06860000       0.11950000
O        1.03030000      -0.85240000       0.05180000
C        0.66610000      -2.20350000      -0.20850000
C       -0.84140000      -2.19080000      -0.27300000
C       -1.26890000      -0.93190000      -0.08540000
N       -1.53770000      -3.33940000      -0.59590000
C       -1.62700000      -4.47100000       0.32470000
C       -2.82690000      -3.64110000      -0.00190000
H        0.85400000       1.51630000       0.44270000
H        1.11220000      -2.53690000      -1.15450000
H        1.05130000      -2.84860000       0.59280000
H       -2.28150000      -0.56010000      -0.08950000
H       -1.49880000      -5.45130000      -0.12360000
H       -1.19800000      -4.35180000       1.31660000
H       -3.19170000      -2.96830000       0.77050000
H       -3.58090000      -4.01980000      -0.68480000
