23
Properties=species:S:1:pos:R:3 gdb_103638=T pbc="F F F"
C        0.35300000       1.34420000       0.33660000
C        0.32960000      -0.16270000       0.05620000
C        0.68180000      -0.51940000      -1.39140000
O       -0.23300000       0.06670000      -2.30650000
C        2.19430000      -0.37000000      -1.76870000
C        2.35170000      -1.92050000      -1.77150000
C        3.13160000      -2.50960000      -0.60110000
C        0.79290000      -2.03820000      -1.67640000
O        0.23360000      -2.86010000      -0.67590000
H        1.32760000       1.78790000       0.10360000
H       -0.40910000       1.87740000      -0.24350000
H        0.14360000       1.54530000       1.39110000
H        1.02360000      -0.67180000       0.73220000
H       -0.66330000      -0.56940000       0.27200000
H       -0.19950000       1.02240000      -2.19470000
H        2.31730000       0.08200000      -2.75520000
H        2.82130000       0.16560000      -1.05000000
H        2.75380000      -2.31790000      -2.70830000
H        2.76550000      -2.14290000       0.36190000
H        3.05380000      -3.60200000      -0.58140000
H        4.19300000      -2.25110000      -0.67980000
H        0.34590000      -2.24280000      -2.65710000
H        0.22970000      -3.76730000      -0.99480000
