14
Properties=species:S:1:pos:R:3 gdb_61707=T pbc="F F F"
C       -0.02990000       1.69990000       0.02090000
C        0.03990000       0.17540000       0.08610000
O        0.70160000      -0.28770000       1.27380000
C        2.06310000      -0.24540000       1.34380000
O        2.63920000      -0.52150000       2.34660000
C       -1.37920000      -0.45470000       0.21410000
O       -2.37940000       0.12440000      -0.08820000
C        0.64510000      -0.39910000      -1.13060000
N        1.08330000      -0.85880000      -2.09650000
H        0.96130000       2.12900000      -0.14020000
H       -0.69080000       2.00190000      -0.79350000
H       -0.43880000       2.07360000       0.96200000
H        2.54090000       0.04780000       0.39390000
H       -1.35630000      -1.48340000       0.62260000
