14
Properties=species:S:1:pos:R:3 gdb_27936=T pbc="F F F"
N        0.10500000       1.37950000       0.20900000
C       -0.00170000       0.00530000       0.04520000
C       -1.07000000      -0.87690000      -0.00590000
C       -2.46950000      -0.51490000      -0.01590000
O       -3.41520000      -1.27190000      -0.05520000
N       -0.59330000      -2.19520000      -0.07430000
C        0.69100000      -2.08280000      -0.07590000
O        1.60660000      -3.06020000      -0.14130000
N        1.12900000      -0.78010000      -0.00930000
H        0.68480000       1.83570000      -0.48670000
H       -0.79700000       1.83350000       0.25460000
H       -2.63560000       0.59230000       0.01000000
H        1.11370000      -3.89010000      -0.18700000
H        2.08180000      -0.47480000       0.10270000
