19
Properties=species:S:1:pos:R:3 gdb_65255=T pbc="F F F"
C        0.17500000       1.50800000      -0.32370000
C       -0.05800000       0.03700000      -0.05910000
C        1.02600000      -0.93490000      -0.25340000
O        0.63930000      -0.50990000       1.06190000
C       -1.51210000      -0.43570000      -0.18610000
O       -1.60740000      -1.85320000      -0.07940000
C       -2.28720000      -2.21640000       1.12190000
C       -2.82030000      -0.92350000       1.66900000
C       -2.39760000       0.08660000       0.92030000
H        1.23550000       1.74910000      -0.21960000
H       -0.14540000       1.77930000      -1.33570000
H       -0.38220000       2.12980000       0.38490000
H        0.77790000      -1.96470000      -0.49240000
H        2.00220000      -0.58310000      -0.58630000
H       -1.87360000      -0.13560000      -1.18310000
H       -3.07980000      -2.93860000       0.87800000
H       -1.59390000      -2.70570000       1.82280000
H       -3.44310000      -0.86520000       2.55240000
H       -2.60730000       1.13770000       1.06640000
