21
Properties=species:S:1:pos:R:3 gdb_100258=T pbc="F F F"
C        0.07820000       1.35820000      -0.02970000
O       -0.04470000      -0.03660000       0.19280000
C       -1.36260000      -0.60910000       0.05690000
C       -1.12210000      -2.12430000       0.02360000
C       -2.18770000      -0.21250000       1.30920000
O       -1.48450000      -0.52080000       2.49210000
C       -2.05130000      -0.16250000      -1.15790000
C       -2.65440000       0.19850000      -2.13650000
C       -3.37920000       0.62350000      -3.32560000
H        1.14130000       1.58880000       0.07300000
H       -0.25740000       1.63700000      -1.03520000
H       -0.48200000       1.95490000       0.70360000
H       -0.67910000      -2.44160000       0.96980000
H       -2.06770000      -2.65280000      -0.11980000
H       -0.44660000      -2.37470000      -0.79650000
H       -2.44220000       0.85670000       1.25240000
H       -3.12710000      -0.77320000       1.32090000
H       -0.56880000      -0.26230000       2.32320000
H       -4.29780000       0.04060000      -3.45380000
H       -3.66230000       1.68000000      -3.26560000
H       -2.77370000       0.49010000      -4.22860000
