13
Properties=species:S:1:pos:R:3 gdb_127984=T pbc="F F F"
C        0.02250000       1.37400000       0.15680000
N        0.32940000      -0.04670000       0.11260000
C        0.65080000      -0.58150000      -0.96240000
O        0.78110000      -0.03530000      -2.22120000
N        1.16880000      -1.04700000      -3.12210000
C        1.24970000      -2.10670000      -2.39470000
O        0.95560000      -1.92250000      -1.08200000
C        1.60810000      -3.39030000      -2.85210000
C        1.91220000      -4.48920000      -3.22980000
H        0.69800000       1.86180000       0.86720000
H        0.10300000       1.88440000      -0.80970000
H       -0.99530000       1.50620000       0.53840000
H        2.18200000      -5.46010000      -3.56880000
