16
Properties=species:S:1:pos:R:3 gdb_32712=T pbc="F F F"
C       -0.03590000       1.51380000       0.01090000
N       -0.06600000       0.06260000       0.00290000
C       -1.21200000      -0.64150000       0.01020000
N       -2.36190000      -0.05630000       0.02460000
C       -3.46370000      -0.86390000       0.03170000
N       -3.57650000      -2.16640000       0.02930000
C       -4.94300000      -2.39450000       0.04030000
C       -5.59660000      -1.21000000       0.04860000
O       -4.65770000      -0.21460000       0.04340000
H        1.00360000       1.84570000       0.00320000
H       -0.55200000       1.91740000      -0.86590000
H       -0.53580000       1.90730000       0.90160000
H        0.80020000      -0.44520000      -0.00850000
H       -1.09310000      -1.72830000       0.00320000
H       -5.35370000      -3.39220000       0.04130000
H       -6.62770000      -0.90330000       0.05810000
