17
Properties=species:S:1:pos:R:3 gdb_64847=T pbc="F F F"
C       -0.16440000       1.59040000      -0.01640000
C       -0.00690000       0.06310000       0.00300000
C        1.17570000      -0.44630000      -0.89080000
C        2.07190000      -0.51090000       0.38460000
C        0.77810000      -0.46000000       1.25480000
C        2.94960000      -1.65720000       0.53990000
N        3.63650000      -2.57910000       0.66130000
C       -1.29070000      -0.58520000      -0.23910000
N       -2.30660000      -1.10290000      -0.43060000
H        0.79960000       2.07500000       0.16530000
H       -0.54090000       1.92890000      -0.98550000
H       -0.86390000       1.91770000       0.75760000
H        0.98370000      -1.43840000      -1.30000000
H        1.50110000       0.22170000      -1.68950000
H        2.66270000       0.40130000       0.49990000
H        0.79420000       0.19740000       2.12530000
H        0.45440000      -1.45670000       1.55570000
