16
Properties=species:S:1:pos:R:3 gdb_15900=T pbc="F F F"
O       -0.24030000       1.54400000      -0.01640000
C       -0.07940000       0.18760000      -0.38900000
C       -1.34880000      -0.59840000      -0.05130000
C       -1.38680000      -2.15920000      -0.07170000
O       -0.06590000      -2.65840000      -0.05960000
C       -2.06730000      -2.16340000       1.33960000
C       -1.68350000      -0.68070000       1.44090000
O       -1.54620000       0.09670000       2.34590000
H       -0.44810000       1.55150000       0.92710000
H        0.11170000       0.17260000      -1.46650000
H        0.78270000      -0.27720000       0.10610000
H       -2.19890000      -0.17780000      -0.60060000
H       -1.97850000      -2.60320000      -0.88010000
H       -0.10250000      -3.61110000       0.07140000
H       -3.15330000      -2.29820000       1.29910000
H       -1.64630000      -2.83480000       2.09240000
