19
Properties=species:S:1:pos:R:3 gdb_83390=T pbc="F F F"
O       -0.01570000       1.51490000      -0.01210000
C       -0.02470000       0.12200000      -0.03860000
C        0.14860000      -0.62600000       1.28150000
O       -0.92330000       0.01070000       2.06790000
C       -2.08320000       0.01540000       1.15530000
C       -1.41520000      -0.67790000      -0.00630000
C       -1.70550000      -1.56520000      -1.22230000
C       -0.51010000      -2.47070000      -0.74020000
C       -0.61150000      -1.81940000       0.68510000
H       -0.26490000       1.76660000       0.88740000
H        0.62030000      -0.20440000      -0.85250000
H        1.04370000      -0.63880000       1.90470000
H       -2.90560000      -0.54850000       1.60490000
H       -2.39540000       1.05050000       0.97960000
H       -2.66130000      -2.09330000      -1.15180000
H       -1.63130000      -1.10100000      -2.20930000
H       -0.70520000      -3.54430000      -0.74250000
H        0.42340000      -2.29630000      -1.27760000
H       -1.11760000      -2.44910000       1.41850000
