15
Properties=species:S:1:pos:R:3 gdb_133824=T pbc="F F F"
O        1.08640000      -0.14450000       1.71140000
C        1.96890000       0.00830000       0.65780000
C        1.90710000       1.10590000      -0.40780000
C        1.83510000      -0.40060000      -0.76940000
C        3.37250000      -0.30280000      -0.96470000
C        4.43590000      -0.65060000       0.00350000
C        3.44450000      -0.16330000       0.95260000
C        4.35460000       0.88100000       0.37020000
C        3.41000000       1.21960000      -0.81100000
H        0.22030000       0.18020000       1.44370000
H        1.10170000       1.82990000      -0.49040000
H        1.08610000      -0.99100000      -1.28220000
H        5.15600000      -1.45750000       0.05980000
H        5.07280000       1.47380000       0.93050000
H        3.68080000       1.85120000      -1.66180000
