19
Properties=species:S:1:pos:R:3 gdb_119239=T pbc="F F F"
C       -0.02830000       1.47550000       0.34190000
O       -0.14450000       0.07720000       0.46400000
C       -1.22110000      -0.44820000      -0.27840000
C       -1.13340000      -1.94950000      -0.19740000
O       -1.46000000      -2.58430000       1.04900000
C       -2.30990000      -2.84910000      -0.05690000
C       -3.74370000      -2.38700000       0.00850000
C        0.05650000      -2.57020000      -0.87720000
O        0.67490000      -2.05330000      -1.77020000
H        0.82770000       1.78330000       0.94640000
H        0.14320000       1.77990000      -0.70220000
H       -0.92810000       1.99400000       0.70980000
H       -2.18010000      -0.08130000       0.11330000
H       -1.14570000      -0.15490000      -1.33760000
H       -2.18730000      -3.85580000      -0.46560000
H       -3.83550000      -1.40520000       0.47460000
H       -4.17870000      -2.34810000      -0.99550000
H       -4.32900000      -3.09880000       0.59950000
H        0.30090000      -3.58240000      -0.48360000
