17
Properties=species:S:1:pos:R:3 gdb_81399=T pbc="F F F"
O        0.29920000       1.45210000       0.10520000
C        0.10590000       0.06830000       0.04800000
C        0.09410000      -0.67630000       1.40140000
C       -0.96160000       0.09320000       2.21260000
C       -2.08750000       0.14080000       1.11420000
C       -2.56310000       1.46930000       0.74850000
N       -2.97110000       2.50460000       0.43400000
C       -1.31080000      -0.57740000      -0.02010000
N       -0.76570000      -1.74450000       0.75910000
H       -0.04040000       1.86410000      -0.69650000
H        0.77900000      -0.42300000      -0.66870000
H        1.00300000      -0.98670000       1.91500000
H       -1.28430000      -0.46080000       3.09430000
H       -0.61880000       1.08680000       2.49920000
H       -2.94780000      -0.46600000       1.40540000
H       -1.84740000      -0.77380000      -0.94800000
H       -0.17420000      -2.28850000       0.12930000
