19
Properties=species:S:1:pos:R:3 gdb_90403=T pbc="F F F"
C       -0.05620000       1.57990000      -0.07080000
C        0.07350000       0.08230000       0.09120000
O       -1.13010000      -0.60840000      -0.21130000
C        1.30670000      -0.74720000      -0.22350000
C        2.57600000      -0.03570000       0.25410000
C        2.02710000      -0.05450000       1.71180000
O        2.01720000       1.20250000       2.35790000
C        0.72460000      -0.66400000       1.21900000
O        0.02650000      -1.55060000       2.00570000
H        0.80090000       2.10740000       0.34830000
H       -0.15540000       1.85030000      -1.12980000
H       -0.95320000       1.92720000       0.45140000
H       -1.21860000      -0.66760000      -1.16810000
H        1.26350000      -1.55050000      -0.95040000
H        3.48300000      -0.63150000       0.13780000
H        2.75690000       0.96400000      -0.15000000
H        2.56050000      -0.80240000       2.31450000
H        1.56540000       1.09890000       3.20210000
H       -0.81900000      -1.69660000       1.55800000
