18
Properties=species:S:1:pos:R:3 gdb_124622=T pbc="F F F"
C       -0.06640000       1.31470000      -0.15030000
C        0.07980000      -0.18700000       0.14510000
C        0.76420000      -0.42190000       1.49440000
N       -1.22720000      -0.83740000       0.16660000
C       -1.70930000      -1.26680000      -0.92540000
N       -1.26950000      -1.28670000      -2.24740000
N       -2.15660000      -1.91580000      -3.07740000
N       -3.14760000      -2.28190000      -2.38230000
N       -2.93110000      -1.90350000      -1.09700000
H        0.90820000       1.81430000      -0.14380000
H       -0.53050000       1.48720000      -1.12720000
H       -0.70160000       1.78410000       0.60750000
H        0.73110000      -0.62700000      -0.63450000
H        0.15710000       0.00240000       2.30040000
H        0.87690000      -1.49230000       1.68730000
H        1.75490000       0.04360000       1.52080000
H       -0.40440000      -0.94110000      -2.62050000
H       -3.59280000      -2.13200000      -0.37630000
