15
Properties=species:S:1:pos:R:3 gdb_5694=T pbc="F F F"
C        0.00350000       1.40930000       0.06210000
C        1.48160000       1.92320000      -0.07800000
C        2.24240000       0.63060000       0.03560000
C        1.35710000      -0.38620000      -0.07200000
N        0.02320000      -0.04990000      -0.28090000
O        1.93100000      -1.59640000      -0.09950000
C        3.29320000      -1.33850000      -0.00050000
C        3.53020000       0.00180000       0.06810000
H       -0.33500000       1.54830000       1.09660000
H       -0.68790000       1.93820000      -0.59760000
H        1.63400000       2.40680000      -1.05200000
H        1.70800000       2.67150000       0.68830000
H       -0.64690000      -0.59230000       0.25240000
H        3.92020000      -2.21250000       0.03200000
H        4.50420000       0.45990000       0.14990000
