17
Properties=species:S:1:pos:R:3 gdb_55510=T pbc="F F F"
C        0.47920000       0.64190000      -0.52610000
C       -0.32380000      -0.00590000       0.58020000
O        0.00510000       0.02270000       1.73990000
C       -1.62030000      -0.72110000       0.15300000
C       -1.32280000      -2.06230000      -0.49250000
O       -0.57680000      -2.19450000      -1.44130000
C       -2.01170000      -3.29370000       0.08850000
N       -1.56880000      -4.44540000      -0.48990000
N       -2.88060000      -3.12470000       1.01380000
H        1.42230000       1.02170000      -0.13180000
H        0.65130000      -0.07950000      -1.33040000
H       -0.09700000       1.46950000      -0.95770000
H       -2.26440000      -0.86120000       1.01820000
H       -2.13160000      -0.11300000      -0.60290000
H       -0.99230000      -4.34490000      -1.31120000
H       -2.07490000      -5.30430000      -0.36070000
H       -3.28990000      -4.01050000       1.31840000
