20
Properties=species:S:1:pos:R:3 gdb_6718=T pbc="F F F"
C       -0.00720000       1.59030000       0.00720000
C       -0.00090000       0.06290000      -0.05040000
O        0.86070000      -0.48840000       0.94490000
C       -1.41360000      -0.53070000       0.04200000
C       -1.43220000      -2.05660000      -0.08840000
C       -2.83670000      -2.65770000       0.08810000
C       -2.81160000      -4.16800000       0.04650000
O       -3.46760000      -4.85330000      -0.69470000
H        1.01450000       1.97620000      -0.04130000
H       -0.58100000       2.01730000      -0.82160000
H       -0.46260000       1.94190000       0.94200000
H        0.45040000      -0.25530000      -0.99910000
H        0.56890000      -0.15180000       1.79980000
H       -1.85710000      -0.23570000       1.00540000
H       -2.04390000      -0.07940000      -0.73510000
H       -1.03760000      -2.34180000      -1.07220000
H       -0.74560000      -2.48070000       0.65290000
H       -3.23140000      -2.36360000       1.07250000
H       -3.53420000      -2.29890000      -0.67490000
H       -2.10670000      -4.63060000       0.77820000
