23
Properties=species:S:1:pos:R:3 gdb_93668=T pbc="F F F"
C       -0.48690000       1.37330000      -0.06070000
C       -0.01210000      -0.07720000      -0.07670000
C        1.01250000      -0.41310000      -1.19350000
O        1.83090000       0.66920000      -1.61350000
C        1.81310000      -1.58850000      -0.57890000
O        1.33520000      -1.80290000       0.74130000
C        0.65670000      -0.62520000       1.21070000
C        1.67020000       0.33710000       1.85390000
C       -0.35550000      -1.09250000       2.25380000
H        0.34660000       2.07410000       0.02310000
H       -1.01760000       1.61470000      -0.98650000
H       -1.17320000       1.55230000       0.77360000
H       -0.87960000      -0.72550000      -0.25390000
H        0.49300000      -0.71610000      -2.10620000
H        2.42740000       0.90280000      -0.89540000
H        1.69180000      -2.52460000      -1.13380000
H        2.88500000      -1.33530000      -0.58650000
H        2.44590000       0.65860000       1.15110000
H        1.18190000       1.23570000       2.24180000
H        2.17470000      -0.16650000       2.68330000
H        0.15480000      -1.55790000       3.10230000
H       -0.94510000      -0.25070000       2.63040000
H       -1.03510000      -1.82980000       1.81810000
