20
Properties=species:S:1:pos:R:3 gdb_15088=T pbc="F F F"
C        0.06080000       1.42510000      -0.05320000
O       -0.03670000       0.01760000      -0.12230000
C        0.68640000      -0.58130000      -1.20040000
C        2.13550000      -0.82430000      -0.75250000
O        2.19540000      -1.57960000       0.43880000
C       -0.02580000      -1.85800000      -1.60380000
C       -0.80280000      -2.68320000      -0.61350000
C       -1.52870000      -1.91900000      -1.69320000
H        1.09300000       1.76910000       0.10220000
H       -0.32790000       1.89820000      -0.96670000
H       -0.54510000       1.74710000       0.79750000
H        0.69730000       0.10930000      -2.06020000
H        2.67440000      -1.38380000      -1.52540000
H        2.64950000       0.14510000      -0.63760000
H        1.51120000      -1.21240000       1.01190000
H        0.52240000      -2.41270000      -2.36050000
H       -0.73750000      -3.76260000      -0.68920000
H       -0.88940000      -2.30570000       0.39760000
H       -2.08010000      -1.03840000      -1.38380000
H       -1.97150000      -2.46830000      -2.51670000
