19
Properties=species:S:1:pos:R:3 gdb_102068=T pbc="F F F"
C       -0.34730000       1.25550000      -0.19490000
O        0.03360000      -0.11100000      -0.21520000
C        0.63510000      -0.56480000       0.98820000
C       -0.49630000      -0.81740000       1.98610000
O       -0.76310000      -0.08870000       2.90540000
C        1.40790000      -1.85480000       0.65290000
C        2.54920000      -1.58720000      -0.34540000
C        1.88900000      -2.47730000       1.88460000
C        2.28810000      -2.96510000       2.90830000
H        0.52590000       1.90810000      -0.05270000
H       -0.80080000       1.46820000      -1.16530000
H       -1.07460000       1.47110000       0.59820000
H        1.31040000       0.19390000       1.40870000
H       -1.12390000      -1.70370000       1.73890000
H        0.68500000      -2.53260000       0.17720000
H        2.14980000      -1.10490000      -1.23950000
H        3.30620000      -0.93570000       0.10120000
H        3.03380000      -2.52400000      -0.63100000
H        2.63480000      -3.40320000       3.81160000
