20
Properties=species:S:1:pos:R:3 gdb_67289=T pbc="F F F"
C       -0.04810000       1.47640000       0.02910000
C       -0.05460000      -0.02670000       0.01710000
C        0.81080000      -0.98740000      -0.89630000
C        1.98230000      -1.00090000       0.10440000
C        0.71990000      -1.00270000       0.98860000
C       -0.05640000      -1.94370000      -0.00080000
C       -1.23950000      -0.99060000      -0.04230000
C       -2.58440000      -0.96660000       0.55290000
N       -2.39100000      -1.03310000      -0.92610000
H        0.97430000       1.86780000       0.06020000
H       -0.52970000       1.88290000      -0.86790000
H       -0.58210000       1.86760000       0.90240000
H        0.83090000      -0.98110000      -1.98710000
H        2.59710000      -1.90610000       0.12650000
H        2.61770000      -0.11000000       0.14300000
H        0.63470000      -1.01210000       2.07680000
H       -0.03320000      -3.03290000      -0.00980000
H       -3.01860000      -1.86200000       0.99030000
H       -2.94540000      -0.03560000       0.98470000
H       -2.56460000      -0.11750000      -1.33620000
