16
Properties=species:S:1:pos:R:3 gdb_19738=T pbc="F F F"
C       -0.04820000       1.57010000       0.04380000
C        1.48300000       1.37700000       0.00800000
O        1.74050000       0.76270000       1.28810000
C        0.89360000      -0.39590000       1.17880000
O        1.65560000      -1.48150000       0.72050000
C        2.12670000      -1.07880000      -0.58180000
C        1.25860000       0.13260000      -0.91890000
C       -0.00950000       0.02400000      -0.00710000
H       -0.45890000       2.05940000       0.92960000
H       -0.45840000       2.00380000      -0.87120000
H        2.20720000       2.16740000      -0.18320000
H        0.45700000      -0.65100000       2.14320000
H        3.19450000      -0.83300000      -0.53430000
H        1.98780000      -1.91160000      -1.27940000
H        1.09190000       0.35070000      -1.97240000
H       -0.86300000      -0.61290000      -0.23170000
