12
Properties=species:S:1:pos:R:3 gdb_25297=T pbc="F F F"
O       -1.00590000       1.44820000      -0.10770000
C        0.10940000       1.06030000      -0.31980000
C        1.38040000       1.92370000      -0.32600000
O        2.43330000       1.36010000      -0.56160000
C        1.32600000       3.35530000      -0.06090000
C        2.32080000       4.29480000      -0.01790000
N        1.78060000       5.52540000       0.27270000
C        0.50710000       5.28610000       0.39150000
O        0.14720000       4.00840000       0.20680000
H        0.36450000       0.00250000      -0.54330000
H        3.37660000       4.14730000      -0.17880000
H       -0.28230000       5.98610000       0.61810000
