19
Properties=species:S:1:pos:R:3 gdb_82337=T pbc="F F F"
C        0.04920000       1.59940000      -0.04990000
C        0.10390000       0.07160000      -0.02690000
C        0.75950000      -0.59340000      -1.22930000
C        2.27610000      -0.61030000      -1.29290000
C        1.53640000      -1.77770000      -0.70600000
N        1.44670000      -1.84520000       0.74880000
C        0.87390000      -0.55940000       1.19580000
C        1.93340000       0.31880000       1.72460000
N        2.74500000       1.01950000       2.15650000
H        1.04860000       2.03350000      -0.13770000
H       -0.54590000       1.94240000      -0.90160000
H       -0.41090000       1.99800000       0.86030000
H       -0.92290000      -0.31210000       0.03530000
H        0.19330000      -0.63710000      -2.15290000
H        2.71970000      -0.75740000      -2.27160000
H        2.85530000       0.03440000      -0.64110000
H        1.56630000      -2.74170000      -1.19950000
H        0.80280000      -2.58740000       1.00010000
H        0.18670000      -0.73430000       2.02900000
