19
Properties=species:S:1:pos:R:3 gdb_72119=T pbc="F F F"
O       -0.07160000       1.36460000       0.02340000
C        0.00960000      -0.03750000       0.04380000
C        0.66940000      -0.72890000      -1.21770000
C       -0.31730000      -1.89720000      -1.33910000
C       -1.65180000      -1.11920000      -1.48580000
C       -1.37950000      -0.74360000      -0.01590000
C       -0.75580000      -2.15520000       0.19190000
C        0.27030000      -1.97750000       1.27130000
C        0.67390000      -0.70280000       1.24040000
H        0.81750000       1.71900000      -0.07950000
H        0.61950000      -0.07370000      -2.09320000
H        1.70800000      -1.01790000      -1.04030000
H       -0.05170000      -2.72740000      -1.99310000
H       -1.69990000      -0.32360000      -2.23440000
H       -2.52130000      -1.77510000      -1.57860000
H       -2.13550000      -0.34670000       0.66280000
H       -1.45750000      -2.98400000       0.28440000
H        0.63540000      -2.76290000       1.92190000
H        1.44590000      -0.23360000       1.83990000
