19
Properties=species:S:1:pos:R:3 gdb_47160=T pbc="F F F"
O        0.04190000       0.01310000      -0.42640000
C       -0.02910000       1.15980000      -0.05270000
C       -1.35450000       1.77650000       0.42050000
C       -1.31380000       3.26710000       0.83210000
C       -0.06130000       3.58630000       1.62640000
C        1.07270000       3.05440000       1.19380000
C        2.50680000       2.81300000       1.62110000
C        2.52280000       1.57290000       0.65860000
C        1.17860000       2.07580000       0.04580000
H       -2.10470000       1.59240000      -0.35570000
H       -1.66040000       1.17010000       1.28210000
H       -1.36350000       3.90140000      -0.06400000
H       -2.21240000       3.50120000       1.41110000
H       -0.12690000       4.19780000       2.52140000
H        3.19260000       3.60070000       1.28980000
H        2.68740000       2.62810000       2.68360000
H        3.37170000       1.49350000      -0.02160000
H        2.39870000       0.62270000       1.18180000
H        1.31570000       2.56140000      -0.93100000
