17
Properties=species:S:1:pos:R:3 gdb_67312=T pbc="F F F"
C       -0.07170000       1.48300000       0.04450000
C       -0.03780000      -0.01090000      -0.04350000
C        0.82800000      -0.95200000      -0.94740000
C        1.94540000      -0.89060000       0.08820000
N        0.72230000      -0.89060000       1.00140000
C        0.02380000      -1.86210000       0.02120000
C       -1.23920000      -0.98930000      -0.04630000
C       -2.14260000      -0.97230000       1.09370000
N       -2.88390000      -0.94740000       1.98040000
H        0.93990000       1.89820000       0.08810000
H       -0.57740000       1.90880000      -0.82830000
H       -0.61060000       1.79600000       0.94380000
H        0.85880000      -0.99160000      -2.04160000
H        2.57670000      -1.77530000       0.21440000
H        2.54780000       0.01980000       0.15650000
H        0.09900000      -2.94060000       0.15850000
H       -1.79890000      -1.04080000      -0.98440000
