19
Properties=species:S:1:pos:R:3 gdb_77892=T pbc="F F F"
C       -0.20400000       1.60270000       0.01150000
C        0.03410000       0.09590000       0.00920000
C        1.16850000      -0.53020000      -0.88640000
O        2.11230000       0.35950000      -1.48850000
C        1.74780000      -1.25720000       0.31740000
C        2.12930000      -0.26580000       1.38260000
O        2.74160000       0.96720000       1.14260000
C        0.67310000      -0.58010000       1.22570000
O       -0.08390000      -1.17080000       2.22280000
H        0.70080000       2.15080000       0.27870000
H       -0.55420000       1.95150000      -0.96820000
H       -0.98070000       1.86180000       0.73890000
H       -0.89950000      -0.42840000      -0.22100000
H        0.76570000      -1.20820000      -1.64690000
H        1.64680000       0.91200000      -2.12550000
H        2.12910000      -2.27100000       0.30560000
H        2.54880000      -0.74910000       2.26470000
H        2.82430000       1.04940000       0.18130000
H        0.03740000      -0.66960000       3.03570000
