18
Properties=species:S:1:pos:R:3 gdb_80959=T pbc="F F F"
C       -0.05330000       1.44990000       0.05340000
C        0.00660000      -0.04740000       0.09150000
C        0.35790000      -1.06550000      -1.04730000
C       -0.07010000      -1.91400000       0.18420000
C        0.80150000      -0.95870000       1.07340000
O        2.18840000      -0.92350000       0.91660000
N       -1.17380000      -0.93570000       0.44830000
C       -2.41090000      -0.96000000      -0.13790000
O       -3.01610000      -1.96320000      -0.44930000
H        0.95200000       1.84880000      -0.11280000
H       -0.69810000       1.80670000      -0.75560000
H       -0.42930000       1.84870000       1.00070000
H       -0.32720000      -1.08600000      -1.89630000
H        1.40530000      -1.11990000      -1.34400000
H       -0.23120000      -2.98650000       0.26330000
H        0.47790000      -0.89140000       2.11800000
H        2.57880000      -1.59000000       1.49000000
H       -2.85030000       0.05600000      -0.21200000
