21
Properties=species:S:1:pos:R:3 gdb_122469=T pbc="F F F"
C        0.17000000       1.35910000       0.10970000
O       -0.13230000       0.00750000      -0.13240000
C        0.70550000      -0.57750000      -1.10460000
C        0.29410000      -2.03470000      -1.28420000
C        1.12750000      -2.73550000      -2.33310000
C        2.47100000      -3.31700000      -1.99390000
C        1.31170000      -4.25000000      -2.31630000
C        0.72350000      -5.05930000      -1.28970000
C        0.22500000      -5.74860000      -0.43840000
H        1.19910000       1.48930000       0.48190000
H        0.05650000       1.97400000      -0.79780000
H       -0.52730000       1.72110000       0.86940000
H        0.62150000      -0.03170000      -2.06170000
H        1.76270000      -0.51370000      -0.79350000
H        0.38350000      -2.55280000      -0.32430000
H       -0.76670000      -2.06880000      -1.55920000
H        1.03630000      -2.31970000      -3.33390000
H        3.27700000      -3.25220000      -2.71620000
H        2.78680000      -3.28020000      -0.95700000
H        1.34720000      -4.72340000      -3.29330000
H       -0.21350000      -6.35540000       0.31420000
