20
Properties=species:S:1:pos:R:3 gdb_14517=T pbc="F F F"
C       -0.03720000       1.11360000      -0.34390000
O        0.41040000      -0.21260000      -0.16820000
C        0.81900000      -0.55450000       1.14700000
C        2.17880000       0.08110000       1.42550000
C       -0.30440000      -0.58980000       2.24980000
C       -0.95540000      -1.75370000       1.43910000
C        0.57320000      -2.06410000       1.46090000
C        0.52890000      -1.68880000       2.97090000
H        0.75830000       1.85580000      -0.18660000
H       -0.38310000       1.19650000      -1.37750000
H       -0.87430000       1.35700000       0.32660000
H        2.10100000       1.17190000       1.47480000
H        2.63240000      -0.25270000       2.35860000
H        2.86040000      -0.16600000       0.60580000
H       -0.80830000       0.25860000       2.71680000
H       -1.58420000      -2.43480000       2.01750000
H       -1.39390000      -1.51060000       0.47430000
H        1.08450000      -2.91200000       1.00230000
H        1.45470000      -1.40050000       3.46770000
H       -0.04970000      -2.36840000       3.60050000
