16
Properties=species:S:1:pos:R:3 gdb_117002=T pbc="F F F"
C        0.56130000       1.02890000       0.12940000
N       -0.48180000       0.26210000      -0.55160000
C        0.01590000      -0.63460000      -1.56540000
C        0.67870000      -1.91040000      -1.02360000
O        0.60860000      -2.23710000       0.14090000
C        1.36280000      -2.72980000      -2.00790000
C        1.91940000      -3.38280000      -2.86230000
C        2.61670000      -4.16180000      -3.85860000
O        2.07230000      -4.92630000      -4.61860000
H        1.33850000       0.41480000       0.60910000
H        1.04650000       1.69640000      -0.59160000
H        0.09810000       1.65370000       0.89770000
H       -0.99970000      -0.27810000       0.13450000
H       -0.80240000      -0.97050000      -2.22060000
H        0.72470000      -0.11260000      -2.21990000
H        3.71260000      -3.99860000      -3.87010000
