15
Properties=species:S:1:pos:R:3 gdb_29596=T pbc="F F F"
N        0.19060000       1.37100000       0.19810000
C        0.06070000      -0.01880000       0.08700000
C       -1.06350000      -0.77950000      -0.03780000
O       -0.73100000      -2.09700000      -0.21480000
C        0.61510000      -2.17100000      -0.18640000
C        1.16650000      -0.93990000      -0.01490000
C        2.62790000      -0.59010000       0.01170000
C        3.00560000       0.15080000       1.22090000
N        3.26070000       0.76420000       2.16690000
H        0.86870000       1.64710000       0.89980000
H       -0.68930000       1.83320000       0.38730000
H       -2.11610000      -0.55350000      -0.03320000
H        1.04330000      -3.15350000      -0.30370000
H        3.24010000      -1.49540000      -0.05150000
H        2.89470000       0.03470000      -0.85090000
