15
Properties=species:S:1:pos:R:3 gdb_52366=T pbc="F F F"
N       -0.19870000       1.32640000       0.01120000
C       -0.08360000       0.07160000       0.00360000
O       -1.19130000      -0.70240000       0.00850000
C       -0.97040000      -2.10940000      -0.00180000
C       -2.34540000      -2.76170000       0.00800000
C       -2.26440000      -4.26640000      -0.00080000
O       -1.24020000      -4.90260000      -0.01400000
C       -3.57120000      -4.95940000       0.00860000
N       -4.59720000      -5.49220000       0.01590000
H        0.72080000       1.76270000       0.00590000
H        0.85300000      -0.50280000      -0.00730000
H       -0.41040000      -2.41050000      -0.89530000
H       -0.39290000      -2.42090000       0.87680000
H       -2.91990000      -2.44410000       0.88790000
H       -2.93700000      -2.43490000      -0.85710000
