15
Properties=species:S:1:pos:R:3 gdb_78627=T pbc="F F F"
O       -0.08010000       1.48510000       0.20640000
C       -0.00840000       0.08830000       0.10610000
C        0.23000000      -0.77190000       1.39530000
C       -0.88360000      -1.75210000       0.85780000
C       -1.91450000      -0.75840000       1.45000000
C       -0.85100000      -0.24910000       2.37020000
O       -0.82580000       0.19110000       3.48280000
C       -1.34610000      -0.62540000       0.00900000
O       -2.16950000      -0.70400000      -1.08510000
H        0.80940000       1.84300000       0.28980000
H        0.65270000      -0.24120000      -0.70780000
H        1.22940000      -1.03930000       1.72730000
H       -0.94230000      -2.82560000       0.78280000
H       -2.97380000      -0.91510000       1.60020000
H       -2.62190000       0.14220000      -1.18300000
