17
Properties=species:S:1:pos:R:3 gdb_87898=T pbc="F F F"
O       -0.14590000       1.41490000      -0.06930000
C       -0.07890000       0.02190000      -0.01440000
C       -0.46860000      -0.69850000       1.23550000
C       -1.41120000      -0.69230000       0.04290000
C       -2.73910000       0.04430000      -0.00820000
C       -3.58080000      -0.84490000      -0.89160000
C       -2.93590000      -1.94320000      -1.30580000
C       -1.55690000      -1.95640000      -0.76400000
O       -0.69620000      -2.79620000      -0.92630000
H        0.59340000       1.76980000       0.43540000
H        0.67540000      -0.44170000      -0.64950000
H        0.02030000      -1.64240000       1.45410000
H       -0.76070000      -0.09580000       2.08930000
H       -3.20200000       0.16170000       0.98000000
H       -2.63920000       1.05310000      -0.42460000
H       -4.60430000      -0.58860000      -1.14410000
H       -3.32150000      -2.72990000      -1.94100000
