18
Properties=species:S:1:pos:R:3 gdb_7511=T pbc="F F F"
C       -0.07740000       1.68080000       0.29300000
C       -0.07060000       0.17760000       0.10820000
C       -1.38910000      -0.41640000      -0.39040000
C       -1.74580000       0.01770000      -1.73870000
C       -2.02360000       0.38390000      -2.84950000
C        1.21020000      -0.49060000      -0.35670000
C        0.72610000      -0.66930000       1.06380000
O        1.38080000      -0.01670000       2.11290000
H        0.86960000       2.02700000       0.70960000
H       -0.25180000       2.18420000      -0.66290000
H       -0.87330000       1.98390000       0.98350000
H       -1.33090000      -1.51210000      -0.37170000
H       -2.19480000      -0.14240000       0.30470000
H       -2.27630000       0.70240000      -3.83020000
H        1.14890000      -1.32980000      -1.04210000
H        2.07330000       0.15120000      -0.50110000
H        0.30750000      -1.64080000       1.33160000
H        2.24440000      -0.42750000       2.22380000
