18
Properties=species:S:1:pos:R:3 gdb_117315=T pbc="F F F"
C       -0.31350000       0.39620000       0.58420000
O        0.68860000       0.10010000       1.53690000
C        1.84920000      -0.46310000       0.97140000
C        1.64920000      -1.87810000       0.46380000
N        1.91920000      -2.22550000      -0.71380000
O        1.14970000      -2.65870000       1.51640000
C        0.81760000      -3.97760000       1.38800000
C        0.30380000      -4.49720000       2.70580000
O        0.92280000      -4.62070000       0.37700000
H       -0.68430000      -0.50490000       0.07520000
H       -1.13920000       0.86120000       1.12730000
H        0.05260000       1.09590000      -0.18200000
H        2.23030000       0.12910000       0.12920000
H        2.59950000      -0.47390000       1.76960000
H        1.74100000      -3.21780000      -0.86440000
H       -0.55760000      -3.90630000       3.02910000
H        0.02530000      -5.54460000       2.59840000
H        1.07580000      -4.38970000       3.47320000
