19
Properties=species:S:1:pos:R:3 gdb_4036=T pbc="F F F"
C       -0.09710000       1.43110000      -0.11610000
O       -0.21150000       0.02920000      -0.18960000
C        0.62860000      -0.58440000      -1.16330000
C        2.07750000      -0.70710000      -0.66950000
C        0.02540000      -1.94010000      -1.45980000
C       -0.28780000      -2.87660000      -0.32680000
N       -0.16250000      -2.19260000      -2.69750000
O       -0.67330000      -3.48580000      -2.89590000
H        0.89340000       1.75990000       0.23100000
H       -0.29600000       1.90540000      -1.08960000
H       -0.84540000       1.77560000       0.60210000
H        0.60830000      -0.00390000      -2.09620000
H        2.12470000      -1.30320000       0.24670000
H        2.69500000      -1.18820000      -1.43360000
H        2.50670000       0.27680000      -0.45970000
H       -0.34020000      -2.32990000       0.61510000
H       -1.23700000      -3.38440000      -0.51180000
H        0.47860000      -3.65630000      -0.24460000
H       -0.80010000      -3.50690000      -3.85020000
