21
Properties=species:S:1:pos:R:3 gdb_8439=T pbc="F F F"
C        0.01320000       1.54030000       0.11360000
C       -0.02620000       0.04390000      -0.01740000
C       -0.88200000      -0.79540000       0.84830000
N        0.58110000      -0.89260000       1.02250000
C        1.03320000      -1.78200000      -0.10390000
C        0.55240000      -0.77740000      -1.19550000
C       -0.43660000      -1.27710000      -2.24890000
C        1.73840000      -0.08280000      -1.86980000
H        0.98580000       1.95200000      -0.17160000
H       -0.74950000       2.00770000      -0.52100000
H       -0.18530000       1.83490000       1.14820000
H       -1.37740000      -0.30160000       1.67960000
H       -1.42170000      -1.65490000       0.45600000
H        2.11720000      -1.91530000      -0.07380000
H        0.55430000      -2.76790000      -0.09680000
H       -1.29630000      -1.78390000      -1.80230000
H       -0.81570000      -0.44580000      -2.85480000
H        0.04860000      -1.98580000      -2.93030000
H        2.25780000      -0.78220000      -2.53420000
H        1.41340000       0.77040000      -2.47580000
H        2.46350000       0.28040000      -1.13500000
