12
Properties=species:S:1:pos:R:3 gdb_130822=T pbc="F F F"
O       -0.84980000       1.30610000       0.20350000
C        0.26070000       0.95280000      -0.09490000
C        1.46780000       1.88990000      -0.24380000
O        2.53100000       1.38710000      -0.55140000
C        1.28900000       3.31920000      -0.01370000
C        0.17790000       4.04250000       0.33400000
O        0.47700000       5.33010000       0.43730000
N        1.84480000       5.51580000       0.15220000
C        2.30200000       4.32500000      -0.10960000
H        0.53420000      -0.10290000      -0.29700000
H       -0.84330000       3.75850000       0.52750000
H        3.34320000       4.18960000      -0.36340000
