23
Properties=species:S:1:pos:R:3 gdb_123049=T pbc="F F F"
C        0.00840000       1.46980000       0.14760000
C       -0.06260000      -0.05870000       0.11500000
C       -1.48930000      -0.57180000      -0.02280000
O       -1.46670000      -1.98450000      -0.04100000
C       -2.74380000      -2.56780000      -0.16500000
C       -2.58250000      -4.07460000      -0.13470000
C       -2.23280000      -4.67750000       1.24230000
O       -3.52940000      -5.30670000       1.34570000
C       -3.89100000      -4.87980000       0.01760000
H        1.04220000       1.81280000       0.24670000
H       -0.40010000       1.90900000      -0.76940000
H       -0.55890000       1.87850000       0.99110000
H        0.52970000      -0.44990000      -0.72000000
H        0.37100000      -0.47970000       1.02940000
H       -2.11040000      -0.21050000       0.81560000
H       -1.94840000      -0.18520000      -0.94970000
H       -3.40120000      -2.24270000       0.66110000
H       -3.22770000      -2.25200000      -1.10630000
H       -1.93180000      -4.39150000      -0.95220000
H       -1.42000000      -5.41440000       1.24120000
H       -2.05630000      -3.95290000       2.04610000
H       -4.82070000      -4.29500000       0.01020000
H       -4.00280000      -5.72670000      -0.67150000
