19
Properties=species:S:1:pos:R:3 gdb_63151=T pbc="F F F"
C        0.19800000       1.53670000      -0.09050000
C        0.05350000       0.02220000      -0.01980000
C       -1.39160000      -0.41910000       0.26410000
C        0.67830000      -0.83060000      -1.17100000
O        1.87370000      -0.25680000      -1.73590000
C        2.72620000      -1.07590000      -0.90550000
C        1.51260000      -1.67330000      -0.15600000
C        1.00210000      -0.73270000       0.94790000
O        1.23430000      -0.62860000       2.11770000
H        1.19340000       1.81490000      -0.44330000
H       -0.53910000       1.96760000      -0.77700000
H        0.03960000       1.97710000       0.89880000
H       -2.06220000      -0.03370000      -0.51110000
H       -1.49190000      -1.51020000       0.28550000
H       -1.72250000      -0.03520000       1.23330000
H        0.00460000      -1.23680000      -1.92900000
H        3.27430000      -1.81230000      -1.50490000
H        3.43700000      -0.48850000      -0.31390000
H        1.46930000      -2.74990000      -0.00080000
