15
Properties=species:S:1:pos:R:3 gdb_33928=T pbc="F F F"
N       -0.06860000      -1.13450000      -0.30330000
C       -0.03860000       0.01240000      -0.15000000
C       -0.00820000       1.43380000       0.05080000
C        0.45380000       2.31550000      -1.09430000
C        1.34740000       2.14500000       0.10730000
N        1.51390000       3.23410000       1.01210000
C        0.48420000       3.70930000       1.57250000
O       -0.80250000       3.29780000       1.46190000
C       -1.04410000       1.94880000       1.04240000
H        0.73480000       1.82470000      -2.01830000
H       -0.04620000       3.27100000      -1.20840000
H        2.23430000       1.53450000      -0.01420000
H        0.55000000       4.58020000       2.21990000
H       -2.04970000       1.94730000       0.61460000
H       -1.04180000       1.30370000       1.92880000
