17
Properties=species:S:1:pos:R:3 gdb_14299=T pbc="F F F"
C       -0.08750000       1.55950000       0.06310000
C        0.07050000       0.05720000       0.06380000
C        1.36300000      -0.65430000      -0.22670000
O        2.56030000       0.08920000      -0.05700000
C        2.61630000       0.40900000       1.27360000
C        3.78630000       1.23480000       1.68070000
N        1.68050000      -0.02480000       2.02500000
C        0.76100000      -0.73390000       1.17030000
H        0.74060000       2.06000000       0.56850000
H       -0.13850000       1.94510000      -0.96050000
H       -1.00830000       1.84710000       0.58040000
H       -0.78140000      -0.48160000      -0.34530000
H        1.46140000      -1.44560000      -0.95930000
H        3.74690000       2.22060000       1.20600000
H        3.78590000       1.35620000       2.76340000
H        4.71720000       0.75680000       1.36050000
H        0.27640000      -1.60390000       1.59730000
