16
Properties=species:S:1:pos:R:3 gdb_28506=T pbc="F F F"
C       -0.10320000       1.51630000      -0.00980000
C       -0.02770000       0.01410000      -0.01500000
N       -0.02450000      -0.62270000      -1.18270000
C        0.02890000      -1.95380000      -1.19690000
C        0.08480000      -2.66440000       0.00230000
O        0.13960000      -4.01190000      -0.01950000
N        0.09270000      -2.06300000       1.18540000
C        0.03190000      -0.72790000       1.18870000
N       -0.01930000      -0.11070000       2.42010000
H        0.78860000       1.97330000       0.44170000
H       -0.18160000       1.87470000      -1.03700000
H       -0.97190000       1.87620000       0.55560000
H        0.02860000      -2.46500000      -2.15300000
H        0.16930000      -4.29730000       0.90380000
H        0.25830000      -0.69770000       3.19250000
H        0.31150000       0.83900000       2.47340000
