12
Properties=species:S:1:pos:R:3 gdb_203=T pbc="F F F"
C       -0.01780000       1.52340000       0.01360000
C        0.00110000       0.02640000       0.01460000
C       -0.06300000      -0.80210000      -1.06210000
O       -0.02080000      -2.10880000      -0.68130000
C        0.07390000      -2.11500000       0.67330000
C        0.09180000      -0.84690000       1.15590000
H        0.89290000       1.93710000       0.46160000
H       -0.09610000       1.91670000      -1.00380000
H       -0.86480000       1.91500000       0.58830000
H       -0.13900000      -0.62550000      -2.12270000
H        0.11810000      -3.08770000       1.13500000
H        0.16040000      -0.55530000       2.19290000
