17
Properties=species:S:1:pos:R:3 gdb_32708=T pbc="F F F"
C        0.01480000       1.44600000       0.05270000
C       -0.07120000      -0.08360000      -0.03290000
N        0.64300000      -0.58130000      -1.19950000
C        1.84700000      -0.95660000      -1.10320000
O        2.54890000      -0.92470000       0.10270000
C        3.82490000      -1.38160000       0.13180000
C        4.44850000      -1.84360000      -0.96070000
N        3.82080000      -1.88030000      -2.20410000
C        2.60670000      -1.45990000      -2.24920000
H        1.04700000       1.76920000       0.21830000
H       -0.34160000       1.90290000      -0.87480000
H       -0.59760000       1.81630000       0.88080000
H        0.29830000      -0.52630000       0.90110000
H       -1.12050000      -0.37670000      -0.14690000
H        4.25710000      -1.32010000       1.12280000
H        5.46860000      -2.20140000      -0.91200000
H        2.06930000      -1.46810000      -3.19440000
