16
Properties=species:S:1:pos:R:3 gdb_47332=T pbc="F F F"
O       -0.06900000      -0.07360000       0.01370000
C       -0.05300000       1.14030000       0.05040000
C       -1.33480000       1.96590000      -0.01760000
N       -1.15090000       3.23610000       0.67410000
C       -0.08340000       4.04450000       0.11050000
C        1.21100000       3.25850000       0.05930000
C        1.20240000       1.90870000       0.08200000
C        2.41110000       4.00740000      -0.03590000
C        3.40530000       4.68370000      -0.11720000
H       -1.59570000       2.07080000      -1.09070000
H       -2.13470000       1.39340000       0.45760000
H       -2.01640000       3.76240000       0.69040000
H       -0.28900000       4.41290000      -0.91580000
H        0.06280000       4.93220000       0.73450000
H        2.12270000       1.33540000       0.06310000
H        4.29280000       5.26300000      -0.18980000
