15
Properties=species:S:1:pos:R:3 gdb_24019=T pbc="F F F"
C       -0.24980000      -1.26620000      -0.23290000
C       -0.10570000      -0.07760000      -0.13290000
C        0.05790000       1.35690000      -0.00290000
C       -0.29160000       1.99020000       1.42140000
N        1.11170000       2.43470000       1.47230000
C        2.19640000       3.12480000       1.95920000
C        3.15140000       2.93580000       0.97550000
N        2.68260000       2.18110000      -0.09180000
C        1.45560000       1.91820000       0.27730000
H       -0.36420000      -2.31770000      -0.32870000
H       -0.46090000       1.87740000      -0.81480000
H       -1.01790000       2.80620000       1.39330000
H       -0.55720000       1.26220000       2.18990000
H        2.21770000       3.64160000       2.90290000
H        4.16630000       3.30480000       0.98200000
