13
Properties=species:S:1:pos:R:3 gdb_52508=T pbc="F F F"
C        0.02780000       1.46260000       0.00970000
C        0.01780000       0.01220000      -0.00060000
C        0.00750000      -1.19500000      -0.00870000
C       -0.01820000      -2.63020000      -0.01830000
O       -1.02610000      -3.30210000      -0.02200000
C        1.37350000      -3.30960000      -0.02400000
O        2.39280000      -2.65920000      -0.02060000
C        1.34670000      -4.75400000      -0.03340000
C        1.35740000      -5.95740000      -0.04120000
H        1.04940000       1.85410000      -0.01760000
H       -0.51630000       1.85840000      -0.85470000
H       -0.46270000       1.84420000       0.91190000
H        1.36400000      -7.02060000      -0.04820000
