18
Properties=species:S:1:pos:R:3 gdb_127071=T pbc="F F F"
C       -0.13430000       1.59500000       0.27140000
N       -0.11040000       0.13850000       0.21710000
C        0.92880000      -0.50090000       1.00850000
C       -1.27760000      -0.52140000      -0.03160000
C       -1.63780000      -1.86250000      -0.07160000
C       -0.89000000      -3.13870000       0.14890000
N       -2.95400000      -1.87460000      -0.44020000
N       -3.43100000      -0.73210000      -0.62370000
O       -2.33630000       0.21580000      -0.35110000
H        0.88470000       1.96480000       0.12930000
H       -0.76760000       1.98680000      -0.52390000
H       -0.51150000       1.97220000       1.23330000
H        0.74500000      -0.41120000       2.08990000
H        1.01120000      -1.55690000       0.75690000
H        1.88690000      -0.02400000       0.78390000
H       -0.51170000      -3.24360000       1.17190000
H       -1.57430000      -3.96960000      -0.03570000
H       -0.04100000      -3.25330000      -0.53510000
