18
Properties=species:S:1:pos:R:3 gdb_8555=T pbc="F F F"
C       -0.10530000       1.50330000      -0.05260000
C        0.01270000       0.00910000      -0.02530000
C        0.91630000      -0.86950000      -0.89840000
C        0.08350000      -2.05130000      -0.34870000
O        0.44900000      -2.09610000       1.05860000
C       -0.29340000      -0.87820000       1.20770000
C       -0.62260000      -0.41550000       2.58590000
C       -1.09350000      -1.05610000      -0.04400000
H        0.82160000       1.98060000       0.28670000
H       -0.31420000       1.86680000      -1.06540000
H       -0.91460000       1.85810000       0.59440000
H        0.72670000      -0.69310000      -1.96140000
H        1.99290000      -0.89820000      -0.69830000
H        0.04140000      -3.03060000      -0.82070000
H        0.29220000      -0.20360000       3.15010000
H       -1.22310000       0.49770000       2.55620000
H       -1.18780000      -1.18080000       3.12690000
H       -2.15020000      -1.02460000      -0.27440000
