18
Properties=species:S:1:pos:R:3 gdb_125675=T pbc="F F F"
C        0.28930000       1.39120000       0.16570000
C        0.08910000      -0.08670000       0.07410000
N        0.06380000      -0.71330000      -1.10090000
N       -0.15060000      -2.00660000      -0.80090000
C       -0.25800000      -2.23600000       0.53450000
C       -0.10600000      -1.00500000       1.14240000
N       -0.21370000      -0.67210000       2.50560000
C        0.29400000      -1.61100000       3.49710000
C        1.00630000      -0.32840000       3.24200000
H        1.22570000       1.64510000       0.67650000
H        0.31840000       1.82400000      -0.83640000
H       -0.52130000       1.86350000       0.73110000
H       -0.21970000      -2.67560000      -1.54730000
H       -0.44890000      -3.21770000       0.93650000
H       -0.31990000      -1.73470000       4.38420000
H        0.77350000      -2.51900000       3.13670000
H        1.95090000      -0.38670000       2.70640000
H        0.91380000       0.50160000       3.93580000
