17
Properties=species:S:1:pos:R:3 gdb_12128=T pbc="F F F"
C       -0.10860000       1.54710000       0.01740000
C        0.07360000       0.06330000       0.02240000
N       -0.80830000      -0.87980000       0.74720000
C        0.65430000      -0.86660000       1.01820000
C        1.37650000      -1.66140000      -0.13780000
C        2.68400000      -2.37280000      -0.03980000
O        0.38020000      -2.13030000      -1.04900000
C        0.77930000      -0.75960000      -1.12520000
H        0.79600000       2.05400000      -0.33760000
H       -0.93510000       1.84420000      -0.63910000
H       -0.32620000       1.92080000       1.02380000
H       -1.24030000      -0.34340000       1.50200000
H        1.05480000      -0.67130000       2.00530000
H        2.58060000      -3.29740000       0.53950000
H        3.05240000      -2.63160000      -1.03590000
H        3.43080000      -1.74590000       0.45910000
H        1.13750000      -0.38140000      -2.07670000
