18
Properties=species:S:1:pos:R:3 gdb_60299=T pbc="F F F"
C       -0.65460000       1.38740000       0.32220000
C       -0.56900000      -0.09680000      -0.00850000
C        0.85200000      -0.53470000      -0.36580000
O       -1.04790000      -0.78730000       1.15890000
C       -1.46440000      -2.11460000       0.95560000
C       -2.70470000      -2.22750000       0.17920000
C       -3.72930000      -2.31000000      -0.45620000
C       -4.88540000      -2.40800000      -1.17600000
N       -5.86760000      -2.49190000      -1.79060000
H       -0.32080000       1.98920000      -0.52790000
H       -1.68220000       1.66650000       0.56760000
H       -0.01950000       1.62120000       1.18250000
H       -1.24350000      -0.31790000      -0.84900000
H        1.20320000       0.00760000      -1.24920000
H        1.53350000      -0.32420000       0.46430000
H        0.90960000      -1.60290000      -0.59590000
H       -0.69070000      -2.72990000       0.47040000
H       -1.63070000      -2.54170000       1.95120000
