18
Properties=species:S:1:pos:R:3 gdb_78642=T pbc="F F F"
C       -0.01330000       1.27250000       0.08160000
N        0.09320000      -0.10060000       0.58620000
C       -0.96740000      -0.97110000      -0.14750000
C       -0.12020000      -1.31670000      -1.30850000
C        0.94280000      -1.01860000      -0.19530000
N        1.45630000      -1.99520000       0.44220000
C        0.66890000      -3.17100000       0.01100000
C       -0.61640000      -2.49620000      -0.54180000
N       -1.75030000      -3.22900000      -1.01170000
H        0.86390000       1.83190000       0.41770000
H       -0.08170000       1.34370000      -1.01670000
H       -0.90020000       1.74250000       0.51700000
H       -2.00620000      -0.66100000      -0.10420000
H       -0.15210000      -1.09450000      -2.36670000
H        1.12450000      -3.81040000      -0.76230000
H        0.51160000      -3.78820000       0.90350000
H       -1.49690000      -3.83120000      -1.79000000
H       -2.12720000      -3.82250000      -0.27890000
