23
Properties=species:S:1:pos:R:3 gdb_36896=T pbc="F F F"
C       -0.23640000       1.57580000      -0.04310000
C       -0.25960000       0.06990000      -0.21310000
C       -0.16560000      -0.83560000       0.99040000
C       -1.45870000      -0.73490000       0.21640000
C        1.17900000       2.14630000       0.03640000
C        2.09830000       2.12860000      -1.23900000
C        2.30730000       3.64040000      -1.08820000
C        0.98700000       4.35050000      -1.16640000
C        1.36900000       3.66980000       0.12060000
H       -0.78280000       2.04680000      -0.87080000
H       -0.78170000       1.84250000       0.87300000
H        0.24830000      -0.28590000      -1.10670000
H        0.41190000      -1.75030000       0.91310000
H       -0.12760000      -0.37050000       1.97060000
H       -2.28430000      -0.20320000       0.67860000
H       -1.76250000      -1.58040000      -0.39110000
H        1.70880000       1.66060000       0.86250000
H        3.00570000       1.53840000      -1.09420000
H        1.62580000       1.81240000      -2.17640000
H        3.24630000       4.16130000      -1.23140000
H        1.03770000       5.43460000      -1.14000000
H        0.18930000       3.96360000      -1.79630000
H        1.46530000       4.23120000       1.04300000
