20
Properties=species:S:1:pos:R:3 gdb_109980=T pbc="F F F"
C        0.10610000       1.30750000      -0.71080000
N       -0.24100000       0.44110000       0.40680000
C       -1.43730000      -0.33390000       0.25550000
C       -1.40870000      -1.73270000      -0.47980000
C       -0.27190000      -2.08960000      -1.41920000
N       -1.33540000      -2.38250000       0.85220000
C       -1.82490000      -1.16680000       1.52790000
C       -1.15760000      -0.84960000       2.79110000
N       -0.63460000      -0.60800000       3.79280000
H        1.00420000       1.87690000      -0.45550000
H        0.29100000       0.78820000      -1.66480000
H       -0.70530000       2.02600000      -0.87460000
H        0.54360000      -0.12860000       0.70070000
H       -2.23130000       0.33150000      -0.09210000
H       -2.37470000      -1.89870000      -0.98190000
H        0.69640000      -1.82940000      -0.98220000
H       -0.26770000      -3.16730000      -1.61460000
H       -0.37630000      -1.57530000      -2.38000000
H       -1.89680000      -3.21620000       0.98810000
H       -2.91060000      -1.13640000       1.69730000
