16
Properties=species:S:1:pos:R:3 gdb_24381=T pbc="F F F"
C       -0.03940000       1.48350000      -0.14350000
C        1.34230000       2.04930000       0.10850000
C        2.43210000       1.32710000       0.37550000
C        2.48420000      -0.18060000       0.47420000
C        1.12910000      -0.74960000       0.22770000
C        0.04340000       0.00760000      -0.04040000
O       -1.02680000      -0.82760000      -0.21250000
C       -0.50210000      -2.06770000      -0.03240000
N        0.76290000      -2.09390000       0.23050000
H       -0.75870000       1.89860000       0.57840000
H       -0.40590000       1.79890000      -1.13200000
H        1.42170000       3.13200000       0.06170000
H        3.37390000       1.84450000       0.53960000
H        3.21470000      -0.58110000      -0.24380000
H        2.86260000      -0.48150000       1.46190000
H       -1.18540000      -2.89710000      -0.12510000
