23
Properties=species:S:1:pos:R:3 gdb_78240=T pbc="F F F"
C       -0.00890000       1.60040000       0.00730000
C        0.04330000       0.06860000       0.02950000
C        0.73130000      -0.56660000      -1.20510000
C        1.32530000      -1.91770000      -0.73330000
C        2.55820000      -2.37690000      -1.51990000
C        1.55710000      -1.74900000       0.76880000
C        2.27270000      -0.52820000       1.28570000
O        3.13180000       0.30720000       0.55430000
C        0.76680000      -0.52470000       1.23890000
H        0.99920000       2.02700000       0.02220000
H       -0.52480000       1.96810000      -0.88640000
H       -0.54190000       1.98790000       0.88180000
H       -0.98830000      -0.30690000       0.06380000
H        0.03460000      -0.69600000      -2.03900000
H        1.51930000       0.09280000      -1.59770000
H        0.54420000      -2.68130000      -0.84800000
H        3.38600000      -1.67100000      -1.39780000
H        2.90600000      -3.35420000      -1.16960000
H        2.33730000      -2.46630000      -2.58920000
H        1.61350000      -2.65700000       1.36240000
H        2.69340000      -0.63870000       2.28060000
H        2.78590000       0.42480000      -0.33320000
H        0.23200000      -0.51660000       2.18440000
