18
Properties=species:S:1:pos:R:3 gdb_47447=T pbc="F F F"
O       -0.13820000      -0.03840000      -0.32990000
C       -0.02900000       1.14890000      -0.23540000
O       -1.10260000       1.98210000      -0.19430000
C       -0.69400000       3.35000000      -0.02570000
C        0.78850000       3.39920000      -0.43130000
C        1.26480000       1.97000000      -0.12410000
C        1.86980000       1.79890000       1.25850000
C        2.72320000       0.62780000       1.55910000
N        3.31450000       1.97800000       1.46890000
H       -1.34000000       3.97000000      -0.65020000
H       -0.84790000       3.63220000       1.02210000
H        0.87720000       3.60820000      -1.50100000
H        1.34280000       4.16680000       0.11280000
H        1.97110000       1.58730000      -0.86650000
H        1.26870000       2.21410000       2.06660000
H        2.72220000       0.19340000       2.55390000
H        2.90280000      -0.08100000       0.75560000
H        3.78510000       2.08630000       0.57290000
