20
Properties=species:S:1:pos:R:3 gdb_87555=T pbc="F F F"
C       -0.11060000       1.59100000      -0.03780000
C        0.04340000       0.07810000       0.03380000
C        1.10550000      -0.62220000      -0.82260000
C        2.47750000      -0.34520000      -0.35470000
N        1.69320000      -1.36550000       0.37350000
C        0.75510000      -0.58770000       1.22150000
C        1.09520000      -0.03500000       2.57940000
C        0.10320000      -1.17430000       2.41700000
O       -1.26690000      -0.92670000       2.54720000
H        0.84360000       2.10700000       0.10600000
H       -0.51570000       1.89530000      -1.00900000
H       -0.80270000       1.94130000       0.73510000
H       -0.93140000      -0.39770000      -0.10790000
H        0.90950000      -1.13840000      -1.75700000
H        3.29520000      -0.77340000      -0.92670000
H        2.71480000       0.58860000       0.14920000
H        2.06920000      -0.26390000       3.00040000
H        0.69550000       0.94210000       2.83280000
H        0.43620000      -2.16720000       2.71920000
H       -1.46420000      -0.82330000       3.48390000
