12
Properties=species:S:1:pos:R:3 gdb_24799=T pbc="F F F"
N       -0.02440000       1.32760000       0.01040000
C        0.01050000       0.05800000       0.00290000
N        1.22830000      -0.67820000      -0.00730000
C        1.14840000      -1.94010000      -0.01420000
O        0.00180000      -2.67910000      -0.01280000
C       -1.15880000      -1.92600000      -0.00280000
N       -1.20440000      -0.65630000       0.00480000
C       -2.32110000      -2.74800000      -0.00170000
C       -3.29900000      -3.44570000      -0.00080000
H        0.93550000       1.67690000       0.00760000
H        2.02100000      -2.58700000      -0.02210000
H       -4.17150000      -4.05320000       0.00010000
