23
Properties=species:S:1:pos:R:3 gdb_112808=T pbc="F F F"
C       -0.22090000       1.77950000      -0.05180000
C       -0.21300000       0.33710000       0.46590000
C       -1.45880000      -0.43320000       0.05150000
C       -1.71580000      -0.76450000      -1.45740000
O       -0.54070000      -0.93730000      -2.22090000
C       -2.36510000      -2.10080000      -0.99190000
C       -1.58120000      -1.95310000       0.34360000
O       -0.28890000      -2.54110000       0.26870000
C       -0.28800000      -3.93380000       0.50240000
H        0.67030000       2.32240000       0.27820000
H       -0.23710000       1.79590000      -1.14570000
H       -1.09790000       2.33010000       0.30780000
H        0.67660000      -0.18040000       0.09600000
H       -0.13640000       0.32990000       1.56080000
H       -2.35470000       0.05740000       0.45170000
H       -2.34490000      -0.07120000      -2.02030000
H        0.01370000      -1.56290000      -1.73600000
H       -3.44580000      -2.01590000      -0.84710000
H       -2.15030000      -2.97980000      -1.60500000
H       -2.07720000      -2.26250000       1.27410000
H       -0.67340000      -4.16790000       1.50600000
H       -0.89300000      -4.47980000      -0.23560000
H        0.74780000      -4.27430000       0.43160000
