18
Properties=species:S:1:pos:R:3 gdb_116856=T pbc="F F F"
C       -0.03500000       1.36230000      -0.02910000
O       -0.03430000      -0.04680000      -0.06660000
C        0.62790000      -0.60530000       1.04840000
C        0.60730000      -2.05880000       0.97260000
C        0.61310000      -3.26200000       0.94900000
C        0.62070000      -4.69730000       0.92210000
N        1.17250000      -5.36380000       1.85320000
O       -0.01940000      -5.14830000      -0.19210000
C       -0.09900000      -6.55490000      -0.36780000
H        0.98730000       1.77260000      -0.03760000
H       -0.56280000       1.70710000      -0.92060000
H       -0.55220000       1.74780000       0.86400000
H        1.67490000      -0.25680000       1.09570000
H        0.14890000      -0.28180000       1.98960000
H        1.10390000      -6.36970000       1.70690000
H        0.89760000      -7.00650000      -0.44550000
H       -0.64870000      -7.03110000       0.45340000
H       -0.63960000      -6.70980000      -1.30200000
