20
Properties=species:S:1:pos:R:3 gdb_7542=T pbc="F F F"
C        0.07350000       1.36890000      -0.37620000
C        0.04540000      -0.05240000       0.12580000
O        1.29090000      -0.75940000       0.18930000
C        0.57450000      -0.52990000       1.42050000
C        1.24710000       0.41030000       2.39980000
C       -0.02830000      -1.79030000       2.02090000
C        1.01830000      -2.78910000       2.50950000
O        0.31990000      -3.93380000       2.97940000
H        0.88260000       1.95100000       0.06790000
H        0.21210000       1.37670000      -1.46260000
H       -0.87750000       1.86760000      -0.15860000
H       -0.76480000      -0.64830000      -0.30230000
H        1.69660000       1.26570000       1.89450000
H        0.52420000       0.77880000       3.13570000
H        2.04330000      -0.10430000       2.94690000
H       -0.68880000      -1.52720000       2.85600000
H       -0.64340000      -2.29690000       1.27070000
H        1.68980000      -3.03820000       1.67490000
H        1.63220000      -2.34860000       3.31060000
H        0.96880000      -4.59280000       3.24220000
