22
Properties=species:S:1:pos:R:3 gdb_113892=T pbc="F F F"
C       -0.06220000      -2.85570000      -0.11930000
C       -0.15360000      -1.71750000       0.90440000
C       -1.31560000      -0.79050000       0.60510000
C       -2.65850000      -1.00340000       1.21900000
N       -1.85720000       0.16850000       1.56960000
C       -1.30630000       0.24110000       2.91310000
C       -2.14690000       1.12240000       3.84560000
C       -2.90190000       2.27570000       3.22070000
O       -2.15880000       0.90100000       5.03420000
H        0.79480000      -3.50320000       0.08750000
H       -0.96580000      -3.47360000      -0.10200000
H        0.05290000      -2.46460000      -1.13600000
H       -0.24930000      -2.13770000       1.91060000
H        0.78120000      -1.14150000       0.89420000
H       -1.29120000      -0.38460000      -0.40700000
H       -3.57200000      -0.81170000       0.66200000
H       -2.73790000      -1.79860000       1.96050000
H       -1.17440000      -0.72480000       3.42070000
H       -0.31510000       0.71450000       2.85500000
H       -3.67990000       1.89310000       2.55280000
H       -3.34710000       2.88790000       4.00590000
H       -2.23580000       2.87680000       2.59330000
