11
Properties=species:S:1:pos:R:3 gdb_3796=T pbc="F F F"
C        0.01200000       1.44630000       0.06360000
N       -0.08930000       0.00550000      -0.09920000
C        0.58760000      -0.62180000      -1.08890000
N        1.18860000      -0.05130000      -2.10370000
O        1.65960000      -1.12220000      -2.82920000
N        1.32340000      -2.28640000      -2.19190000
N        0.67970000      -2.00700000      -1.14620000
H        1.02720000       1.77220000       0.32580000
H       -0.27250000       1.93880000      -0.86970000
H       -0.67890000       1.75980000       0.84770000
H       -0.24910000      -0.55660000       0.72110000
