20
Properties=species:S:1:pos:R:3 gdb_22144=T pbc="F F F"
C       -0.09150000       1.52650000      -0.04830000
C       -0.01020000       0.02260000      -0.04890000
C        0.05290000      -0.73110000       1.25380000
C        1.35990000      -0.48390000       2.02760000
C        1.38590000      -1.23900000       3.37190000
C        2.61420000      -1.01650000       4.12450000
C        3.63570000      -0.81480000       4.72520000
N        0.01440000      -0.68770000      -1.11210000
O       -0.02960000       0.11030000      -2.26890000
H        0.82460000       1.96460000      -0.45930000
H       -0.90970000       1.85960000      -0.69340000
H       -0.24340000       1.91850000       0.95940000
H       -0.79810000      -0.43110000       1.88200000
H       -0.05700000      -1.79860000       1.04000000
H        2.21160000      -0.80250000       1.41750000
H        1.49480000       0.58620000       2.21970000
H        0.52440000      -0.93200000       3.97990000
H        1.25800000      -2.31400000       3.18850000
H        4.53430000      -0.64500000       5.26430000
H       -0.02820000      -0.55090000      -2.96870000
