17
Properties=species:S:1:pos:R:3 gdb_131228=T pbc="F F F"
O       -0.13290000       1.35330000       0.18560000
C       -0.00990000       0.01830000      -0.00110000
C       -0.02370000      -0.78620000      -1.12540000
C        0.15720000      -2.08290000      -0.60110000
N        0.27220000      -2.08560000       0.72140000
N        0.16670000      -0.77690000       1.07780000
C        0.24350000      -0.36750000       2.45160000
C       -0.33440000      -1.24930000       3.52250000
C        1.16410000      -1.09270000       3.39210000
H       -0.25100000       1.77150000      -0.67240000
H       -0.14490000      -0.47970000      -2.15140000
H        0.20780000      -3.01730000      -1.14120000
H        0.13910000       0.70560000       2.54020000
H       -0.84560000      -0.77290000       4.35160000
H       -0.75660000      -2.18970000       3.19000000
H        1.70720000      -1.93240000       2.97580000
H        1.70070000      -0.50690000       4.13010000
