19
Properties=species:S:1:pos:R:3 gdb_58030=T pbc="F F F"
C        1.09030000      -0.54610000      -0.62580000
N       -0.07950000       0.02770000       0.03450000
C        0.00040000       1.48710000       0.04130000
C       -1.36340000      -0.41110000      -0.53750000
C       -1.41780000      -1.85270000      -0.77290000
C       -1.51240000      -3.03500000      -0.96570000
C       -2.54910000      -0.05170000       0.41110000
N       -2.24150000      -0.20690000       1.72210000
O       -3.62950000       0.28820000      -0.01900000
H        1.98950000      -0.21290000      -0.09910000
H        1.04730000      -1.63500000      -0.58720000
H        1.18120000      -0.23820000      -1.68290000
H        0.01460000       1.91520000      -0.97720000
H       -0.85130000       1.91270000       0.57770000
H        0.91550000       1.79710000       0.55360000
H       -1.59020000       0.10520000      -1.48690000
H       -1.59620000      -4.07920000      -1.14080000
H       -1.28480000      -0.39110000       1.97880000
H       -2.93400000       0.00930000       2.41890000
