19
Properties=species:S:1:pos:R:3 gdb_117277=T pbc="F F F"
C        0.06180000       1.49890000      -0.15500000
O        0.27300000       0.12920000       0.09900000
C        0.53710000      -0.60200000      -1.05650000
C        0.71430000      -2.08170000      -0.72210000
O        0.47440000      -2.54090000       0.36010000
C        1.23880000      -2.91650000      -1.90620000
C        1.07090000      -4.35080000      -1.75310000
C        0.92470000      -5.53690000      -1.61850000
C        0.74590000      -6.97090000      -1.44690000
H        0.94480000       1.97200000      -0.61330000
H       -0.80010000       1.66280000      -0.82110000
H       -0.13730000       1.97760000       0.80620000
H       -0.28720000      -0.52270000      -1.79170000
H        1.44330000      -0.24080000      -1.57850000
H        0.76360000      -2.55700000      -2.82960000
H        2.30390000      -2.66020000      -2.01550000
H        1.69450000      -7.50760000      -1.55890000
H        0.35030000      -7.20060000      -0.45150000
H        0.04550000      -7.37750000      -2.18470000
