19
Properties=species:S:1:pos:R:3 gdb_84922=T pbc="F F F"
O        0.07780000       1.30470000      -0.36920000
C       -0.02120000      -0.07700000      -0.03430000
C        0.79700000      -0.39860000       1.20850000
C        0.44950000      -0.10980000       2.46340000
C       -0.79890000       0.57920000       2.94970000
O       -1.65420000       1.09600000       1.93820000
C       -2.28130000       0.07580000       1.20250000
C       -2.60840000       0.36460000      -0.22980000
C       -1.46770000      -0.56630000       0.11740000
H       -0.25310000       1.78780000       0.39920000
H        0.42380000      -0.59430000      -0.89010000
H        1.76540000      -0.86260000       1.03980000
H        1.13610000      -0.36710000       3.26950000
H       -1.36510000      -0.10470000       3.60550000
H       -0.51930000       1.43980000       3.57050000
H       -2.97350000      -0.52370000       1.79370000
H       -3.52450000      -0.05180000      -0.63320000
H       -2.32780000       1.33630000      -0.61810000
H       -1.59880000      -1.63170000      -0.04810000
