21
Properties=species:S:1:pos:R:3 gdb_110485=T pbc="F F F"
C       -0.14130000       1.52170000       0.03510000
C        0.06680000       0.00430000       0.08580000
C        0.65550000      -0.56280000      -1.20070000
C        0.90230000      -2.05780000      -1.36570000
C       -0.34360000      -2.82560000      -1.89530000
C       -1.68580000      -2.18390000      -1.80470000
C       -1.60930000      -0.92840000      -2.26090000
C       -0.16780000      -0.60730000      -2.57410000
C        0.50570000      -1.99860000      -2.82040000
H        0.80010000       2.04620000      -0.16530000
H       -0.84660000       1.79930000      -0.75600000
H       -0.53890000       1.90300000       0.98080000
H        0.74870000      -0.24530000       0.91010000
H       -0.88070000      -0.49540000       0.31240000
H        1.59710000      -0.04850000      -1.42770000
H        1.70490000      -2.61930000      -0.90050000
H       -0.23630000      -3.90440000      -1.89460000
H       -2.56100000      -2.67260000      -1.39420000
H       -2.40430000      -0.19260000      -2.25460000
H        0.01720000       0.21250000      -3.26650000
H        1.01280000      -2.35010000      -3.71080000
