14
Properties=species:S:1:pos:R:3 gdb_66289=T pbc="F F F"
O        0.17330000       1.45610000       0.29040000
C       -0.01120000       0.09160000       0.06490000
C       -1.47850000      -0.31450000      -0.17640000
O       -1.39370000      -1.51050000      -0.94520000
C       -0.36240000      -1.35770000      -1.90330000
C        0.59310000      -0.33320000      -1.31110000
O        1.55970000       0.18660000      -1.79040000
C        0.60060000      -0.74110000       1.11910000
N        1.09940000      -1.39200000       1.93370000
H        1.02490000       1.69240000      -0.10910000
H       -2.03690000      -0.53910000       0.73180000
H       -1.96960000       0.50310000      -0.72440000
H        0.12260000      -2.32230000      -2.07910000
H       -0.73680000      -0.97490000      -2.86570000
