18
Properties=species:S:1:pos:R:3 gdb_34383=T pbc="F F F"
N       -0.05560000      -1.16350000      -0.06500000
C       -0.05000000      -0.00780000      -0.01090000
C       -0.03650000       1.44700000       0.03900000
C       -0.35550000       2.18060000      -1.30860000
C        0.86010000       3.11390000      -1.06410000
C        1.35410000       2.19580000       0.09180000
C        1.46860000       2.83370000       1.48650000
C        0.05590000       2.74540000       2.01740000
C       -0.74550000       2.00050000       1.25770000
H       -0.22300000       1.52190000      -2.16920000
H       -1.34200000       2.64510000      -1.36620000
H        1.54520000       3.23120000      -1.90550000
H        0.57340000       4.10760000      -0.71100000
H        2.20880000       1.57830000      -0.18390000
H        2.16880000       2.29820000       2.14120000
H        1.82980000       3.86810000       1.42690000
H       -0.25210000       3.23590000       2.93450000
H       -1.78850000       1.78080000       1.45420000
