19
Properties=species:S:1:pos:R:3 gdb_92691=T pbc="F F F"
C       -0.03470000       1.55290000       0.00950000
C        0.02580000       0.02480000      -0.00370000
C        0.74660000      -0.51650000      -1.24760000
N        0.92690000      -1.95820000      -1.30070000
C        0.95020000      -2.63340000      -0.21290000
N        1.16790000      -3.98250000      -0.19680000
C        0.77810000      -2.04840000       1.18070000
O        0.69670000      -2.77500000       2.14740000
C        0.71820000      -0.54180000       1.24450000
H        0.97160000       1.98720000       0.03590000
H       -0.53960000       1.93400000      -0.88420000
H       -0.57980000       1.92120000       0.88480000
H       -1.00230000      -0.36500000      -0.02430000
H        0.20080000      -0.21610000      -2.15030000
H        1.73620000      -0.03580000      -1.32840000
H        1.06090000      -4.47810000      -1.06620000
H        0.93120000      -4.45700000       0.66000000
H        1.75560000      -0.17310000       1.28060000
H        0.23660000      -0.24520000       2.18080000
