25
Properties=species:S:1:pos:R:3 gdb_101683=T pbc="F F F"
C        1.36990000       1.17120000       0.84350000
O        1.11020000      -0.13840000       0.40160000
C        0.22180000      -0.22830000      -0.71070000
C        0.93940000       0.10710000      -2.02110000
C       -0.33480000      -1.65460000      -0.66900000
C       -1.41520000      -1.96420000      -1.70530000
C       -1.92570000      -3.40180000      -1.56500000
O       -2.45480000      -1.00810000      -1.51480000
C       -3.37040000      -0.90270000      -2.57840000
H        1.92080000       1.77250000       0.10440000
H        0.44140000       1.70800000       1.09560000
H        1.98410000       1.09170000       1.74460000
H       -0.61220000       0.47380000      -0.56590000
H        1.74430000      -0.61060000      -2.21180000
H        0.24470000       0.08620000      -2.86590000
H        1.37730000       1.10870000      -1.98690000
H        0.49390000      -2.36130000      -0.79620000
H       -0.74680000      -1.82270000       0.33210000
H       -1.00140000      -1.83690000      -2.72010000
H       -2.68220000      -3.63940000      -2.31820000
H       -1.10240000      -4.11230000      -1.68870000
H       -2.36680000      -3.55180000      -0.57450000
H       -4.03100000      -0.06160000      -2.35200000
H       -2.86240000      -0.70420000      -3.53580000
H       -3.98860000      -1.80400000      -2.70040000
