20
Properties=species:S:1:pos:R:3 gdb_82947=T pbc="F F F"
C       -0.33140000       1.50960000       0.03720000
N        0.08700000       0.11440000       0.08720000
C        1.36910000      -0.40190000      -0.34530000
C        2.63310000       0.46990000      -0.37300000
C        2.92710000       0.83830000       1.07810000
O        1.94110000       1.66250000       1.70930000
C        1.89030000       0.24910000       1.94070000
C        0.90440000      -0.54520000       1.08870000
C        0.35140000      -1.81260000       1.69880000
H        0.47980000       2.23780000      -0.03480000
H       -0.99650000       1.62720000      -0.82610000
H       -0.90660000       1.74350000       0.93750000
H        1.32210000      -1.22010000      -1.06350000
H        3.46430000      -0.12190000      -0.77230000
H        2.53820000       1.35790000      -1.00820000
H        3.94900000       1.02480000       1.40160000
H        2.06780000      -0.05940000       2.96800000
H       -0.31870000      -1.58570000       2.53650000
H       -0.21960000      -2.36950000       0.95280000
H        1.15370000      -2.45610000       2.07790000
