20
Properties=species:S:1:pos:R:3 gdb_26660=T pbc="F F F"
C       -0.01150000       1.49700000       0.11480000
C        0.01120000       0.01060000      -0.02740000
C        0.00680000      -0.79990000      -1.14840000
C       -0.03160000      -0.39890000      -2.59160000
C        0.04610000      -2.14680000      -0.67230000
O        0.04270000      -3.28940000      -1.43130000
C        0.07340000      -2.14380000       0.70080000
C        0.11360000      -3.26970000       1.67550000
N        0.04840000      -0.81000000       1.07330000
H        0.89640000       1.88300000       0.59670000
H       -0.08570000       1.97440000      -0.86470000
H       -0.86670000       1.84180000       0.71030000
H        0.86310000      -0.72660000      -3.13950000
H       -0.90090000      -0.82110000      -3.11380000
H       -0.08940000       0.68670000      -2.70730000
H        0.13370000      -3.03840000      -2.35460000
H        0.98310000      -3.21470000       2.34410000
H       -0.78220000      -3.31370000       2.30960000
H        0.17640000      -4.21350000       1.12900000
H        0.06150000      -0.48720000       2.02470000
