23
Properties=species:S:1:pos:R:3 gdb_95778=T pbc="F F F"
C       -0.13810000       1.54540000       0.00230000
C        0.05470000       0.03030000       0.02150000
C        0.72530000      -0.50590000      -1.26600000
C        0.93310000      -2.02310000      -1.22010000
C        1.74620000      -2.43520000       0.01130000
C        1.09940000      -1.94390000       1.32860000
C        1.91030000      -2.32570000       2.56530000
C        0.85640000      -0.43530000       1.23940000
O        1.28340000       0.33850000       2.06680000
H        0.82500000       2.05900000      -0.07230000
H       -0.75500000       1.84330000      -0.85130000
H       -0.61970000       1.89350000       0.91910000
H       -0.92840000      -0.46050000       0.09860000
H        0.11680000      -0.22430000      -2.13280000
H        1.69570000      -0.00590000      -1.39250000
H       -0.04360000      -2.52580000      -1.19880000
H        1.43650000      -2.36110000      -2.13280000
H        1.86280000      -3.52410000       0.05190000
H        2.75980000      -2.01690000      -0.06100000
H        0.10290000      -2.40940000       1.38910000
H        2.90620000      -1.87420000       2.53180000
H        1.42620000      -1.97290000       3.47900000
H        2.02600000      -3.41230000       2.62840000
