13
Properties=species:S:1:pos:R:3 gdb_20397=T pbc="F F F"
C        0.02850000       1.37210000      -0.13550000
C        1.50390000       1.87560000       0.09720000
C        2.13420000       0.61440000       0.61360000
C        1.18100000      -0.34650000       0.64270000
O       -0.05330000      -0.04990000       0.24530000
O        1.59770000      -1.51450000       1.07850000
N        2.99500000      -1.34260000       1.38480000
C        3.26250000      -0.08190000       1.09700000
H       -0.69850000       1.90350000       0.48140000
H       -0.27580000       1.43370000      -1.18190000
H        1.94320000       2.24010000      -0.83720000
H        1.52430000       2.70570000       0.81110000
H        4.27670000       0.25800000       1.25880000
