19
Properties=species:S:1:pos:R:3 gdb_115887=T pbc="F F F"
C        0.03430000       1.33800000      -0.17670000
O        0.00630000      -0.03580000       0.14610000
C       -1.29240000      -0.59470000       0.14870000
C       -1.86890000      -0.84920000      -1.27050000
O       -2.60510000      -2.06950000      -1.21480000
C       -2.11200000      -2.82200000      -0.13610000
C       -0.62040000      -3.07390000      -0.03990000
C       -1.28670000      -1.97610000       0.77290000
O       -1.39300000      -2.07760000       2.15590000
H        1.07030000       1.67200000      -0.08140000
H       -0.30230000       1.53260000      -1.20590000
H       -0.59450000       1.92780000       0.50840000
H       -1.96870000       0.03920000       0.74340000
H       -2.54970000      -0.06850000      -1.61880000
H       -1.03100000      -0.92300000      -1.97920000
H       -2.81710000      -3.56270000       0.22020000
H       -0.33060000      -3.95550000       0.52150000
H        0.03490000      -2.81160000      -0.86260000
H       -0.53320000      -1.84930000       2.52760000
