22
Properties=species:S:1:pos:R:3 gdb_13132=T pbc="F F F"
C       -0.09960000       1.57480000      -0.09810000
C        0.00160000       0.05240000      -0.03230000
C        1.17600000      -0.53200000      -0.87410000
C        2.01340000      -0.66090000       0.42570000
C        0.69620000      -0.53600000       1.24430000
C        0.68920000       0.24110000       2.55410000
C        1.47230000      -0.46070000       3.65710000
O        1.40770000       0.34630000       4.82440000
H        0.86980000       2.05680000       0.06970000
H       -0.45380000       1.88900000      -1.08610000
H       -0.79920000       1.96780000       0.64710000
H       -0.98140000      -0.37940000      -0.24600000
H        0.93170000      -1.50750000      -1.30370000
H        1.57550000       0.10490000      -1.66840000
H        2.61030000      -1.56730000       0.55620000
H        2.66780000       0.20350000       0.57930000
H        0.29170000      -1.54060000       1.42250000
H        1.11710000       1.24030000       2.41320000
H       -0.34100000       0.38750000       2.90330000
H        1.04230000      -1.45970000       3.83980000
H        2.51580000      -0.61130000       3.33560000
H        1.91470000      -0.08660000       5.51720000
