18
Properties=species:S:1:pos:R:3 gdb_80833=T pbc="F F F"
C       -0.21410000       1.54420000      -0.06690000
C        0.00400000       0.04070000      -0.00920000
C        1.16530000      -0.60310000      -0.80500000
C        2.14720000      -0.17710000       0.30470000
C        0.88650000      -0.51600000       1.19430000
N        0.66690000      -0.19380000       2.56170000
C        0.79060000      -1.99500000       0.84720000
O        0.61080000      -2.94580000       1.55030000
O        0.97120000      -2.02720000      -0.50690000
H        0.70980000       2.12370000       0.01230000
H       -0.70220000       1.82660000      -1.00550000
H       -0.86840000       1.84970000       0.75540000
H       -0.94960000      -0.47930000      -0.14580000
H        1.34020000      -0.47920000      -1.87030000
H        3.04770000      -0.78260000       0.43190000
H        2.39430000       0.88450000       0.29760000
H        0.74370000      -1.02970000       3.13410000
H        1.31020000       0.50570000       2.90820000
