11
Properties=species:S:1:pos:R:3 gdb_21464=T pbc="F F F"
N       -0.36980000       1.41210000       0.00960000
C       -0.01820000       0.20470000       0.00180000
O       -1.00500000      -0.74840000       0.00420000
C       -0.61450000      -2.07020000      -0.00400000
C       -1.80490000      -2.89420000       0.00030000
N       -1.64530000      -4.19170000      -0.00580000
N       -1.48980000      -5.30910000      -0.01130000
O        0.52950000      -2.45140000      -0.01280000
H        0.45530000       2.01020000       0.00670000
H        0.98420000      -0.22330000      -0.00680000
H       -2.81510000      -2.51700000       0.00810000
