15
Properties=species:S:1:pos:R:3 gdb_49612=T pbc="F F F"
O       -0.51400000       0.54070000      -0.61310000
C        0.23640000       0.89730000       0.25420000
C        1.28580000       1.99120000       0.07770000
C        1.22270000       2.82590000      -1.17630000
C       -0.01070000       3.68590000      -1.37460000
C        1.19590000       4.25300000      -0.69500000
O        1.16300000       4.27120000       0.72400000
C        1.18970000       3.00970000       1.23190000
O        1.11660000       2.77160000       2.40070000
H        0.22910000       0.45000000       1.26960000
H        2.25970000       1.49370000       0.19120000
H        1.80340000       2.53120000      -2.04010000
H       -0.21630000       4.01480000      -2.38680000
H       -0.89190000       3.49200000      -0.77300000
H        1.78950000       5.06070000      -1.10140000
