17
Properties=species:S:1:pos:R:3 gdb_2238=T pbc="F F F"
C       -0.03980000       1.57370000       0.12360000
C        0.13710000       0.08460000       0.04450000
C       -0.81880000      -0.88680000       0.69610000
C        0.63340000      -0.80790000       1.14890000
C        1.61390000      -1.76720000       0.49590000
C        1.29400000      -1.60990000      -1.00860000
O        0.72550000      -0.31330000      -1.17550000
H        0.92120000       2.08350000      -0.00000000
H       -0.71390000       1.92640000      -0.66410000
H       -0.46550000       1.86000000       1.08910000
H       -1.56590000      -0.47380000       1.36580000
H       -1.15370000      -1.75800000       0.14250000
H        0.85590000      -0.42030000       2.13660000
H        2.63860000      -1.44810000       0.71500000
H        1.51020000      -2.80650000       0.82320000
H        2.17600000      -1.67660000      -1.65190000
H        0.58280000      -2.38110000      -1.33650000
