16
Properties=species:S:1:pos:R:3 gdb_127701=T pbc="F F F"
C        0.22830000       1.41610000      -0.04500000
N        0.00430000      -0.01340000       0.03460000
N       -0.41040000      -0.73160000      -0.99860000
N       -0.49650000      -1.96540000      -0.57160000
C       -0.12380000      -1.94730000       0.73390000
N        0.20290000      -0.72360000       1.14120000
C       -0.07350000      -3.14880000       1.58070000
C       -1.13650000      -4.18540000       1.43010000
N        0.22160000      -4.45010000       0.95180000
H        1.27160000       1.63980000       0.18700000
H       -0.00680000       1.72490000      -1.06260000
H       -0.41990000       1.93180000       0.66650000
H        0.38680000      -2.99160000       2.55060000
H       -1.44160000      -4.76000000       2.30000000
H       -1.91670000      -3.98820000       0.70070000
H        0.25220000      -4.31810000      -0.05790000
