16
Properties=species:S:1:pos:R:3 gdb_129967=T pbc="F F F"
N       -0.10070000       1.32940000      -0.35420000
C       -0.05870000      -0.02840000      -0.10380000
N       -1.07210000      -0.86440000      -0.23090000
C       -0.49460000      -2.07450000       0.04860000
N        0.79430000      -2.04530000       0.33850000
N        1.06020000      -0.69600000       0.24460000
N       -1.25190000      -3.23920000       0.10200000
C       -1.80890000      -3.77920000      -1.13530000
C       -0.68740000      -4.46920000      -0.43310000
H        0.45670000       1.89660000       0.26970000
H       -1.05460000       1.66070000      -0.40310000
H        2.00270000      -0.36390000       0.35110000
H       -2.82380000      -4.15710000      -1.05890000
H       -1.57910000      -3.25480000      -2.05890000
H        0.30190000      -4.40830000      -0.87740000
H       -0.87710000      -5.36080000       0.15680000
