17
Properties=species:S:1:pos:R:3 gdb_76276=T pbc="F F F"
C        0.21770000       1.55990000       0.04930000
C       -0.03450000       0.04680000      -0.04320000
C        0.69740000      -0.63330000      -1.22380000
O        0.95870000       0.20620000      -2.31330000
C        1.97620000      -1.17450000      -0.59490000
N        3.01080000      -1.40880000      -1.28900000
N        1.72570000      -1.29850000       0.76130000
C        0.56100000      -0.65080000       1.18420000
O        0.16600000      -0.63200000       2.32110000
H        1.28790000       1.78340000       0.09530000
H       -0.18670000       2.06030000      -0.83200000
H       -0.25980000       1.96040000       0.94670000
H       -1.11040000      -0.14060000      -0.06370000
H        0.10870000      -1.51040000      -1.54290000
H        1.82350000      -0.06820000      -2.65310000
H        3.80120000      -1.75180000      -0.74400000
H        2.35560000      -1.72470000       1.42620000
