21
Properties=species:S:1:pos:R:3 gdb_63778=T pbc="F F F"
C        0.28610000       1.46990000      -0.09410000
C        0.04910000      -0.03520000      -0.01120000
C       -1.43510000      -0.35270000      -0.21690000
C        0.95080000      -0.93050000      -0.92580000
C        1.33900000      -1.81840000       0.30200000
C        0.58910000      -0.79820000       1.24300000
C        1.95170000      -0.34870000       1.84590000
C        2.65790000      -1.37660000       0.93720000
O        3.79640000      -1.72510000       0.81330000
H        1.34600000       1.72920000      -0.01510000
H       -0.07160000       1.86110000      -1.05360000
H       -0.25110000       2.00100000       0.70030000
H       -1.77480000      -0.01230000      -1.20160000
H       -1.62700000      -1.42910000      -0.15000000
H       -2.05050000       0.14340000       0.54250000
H        0.41030000      -1.46770000      -1.70850000
H        1.79700000      -0.41690000      -1.39060000
H        1.13520000      -2.88700000       0.23140000
H       -0.15780000      -1.11370000       1.97230000
H        2.25700000       0.69470000       1.73340000
H        2.06520000      -0.61820000       2.90160000
