20
Properties=species:S:1:pos:R:3 gdb_76445=T pbc="F F F"
C       -0.22520000       1.07060000      -0.29680000
C        0.33760000      -0.28550000       0.07020000
C        1.83740000      -0.53600000       0.16400000
O        2.73850000       0.53180000       0.05360000
C        0.99780000      -0.55620000       1.41590000
C        1.16080000       0.55530000       2.43060000
N        0.74490000      -1.81630000       2.09410000
C        0.59050000      -3.04860000       1.55040000
O        0.65530000      -3.33210000       0.36970000
H        0.48000000       1.87660000      -0.07980000
H       -0.44920000       1.11000000      -1.36860000
H       -1.15730000       1.28110000       0.23870000
H       -0.20590000      -1.13410000      -0.32930000
H        2.19490000      -1.48970000      -0.21120000
H        2.83390000       0.73900000      -0.88210000
H        1.49560000       1.47400000       1.95360000
H        0.21850000       0.75320000       2.95460000
H        1.91820000       0.28100000       3.17430000
H        0.65450000      -1.75920000       3.09640000
H        0.39060000      -3.80680000       2.33500000
