16
Properties=species:S:1:pos:R:3 gdb_54581=T pbc="F F F"
N       -0.15270000       1.25620000       0.15610000
C       -0.03070000      -0.07820000      -0.06910000
O        1.02300000      -0.66030000      -0.25500000
C       -1.33050000      -0.79440000      -0.07240000
O       -2.56680000      -0.11830000       0.17380000
C       -3.15080000      -1.44520000       0.35250000
C       -3.14540000      -2.03400000      -1.08340000
C       -1.62470000      -2.04680000      -0.92940000
C       -1.72790000      -2.07930000       0.58380000
H        0.67930000       1.81960000       0.20530000
H       -1.05060000       1.65930000       0.36450000
H       -4.01760000      -1.45200000       1.00890000
H       -3.54950000      -3.04890000      -1.10510000
H       -3.60190000      -1.41600000      -1.86220000
H       -0.85760000      -2.48100000      -1.55520000
H       -1.25880000      -2.67380000       1.35430000
