14
Properties=species:S:1:pos:R:3 gdb_35025=T pbc="F F F"
N        0.00780000      -1.17010000       0.04900000
C        0.03450000      -0.01440000       0.02280000
C        0.06910000       1.42670000       0.00460000
N        0.46970000       2.23010000       1.17990000
C        1.52960000       1.44110000       1.92020000
C        2.48110000       1.43570000       0.69640000
C        1.36540000       2.17180000      -0.05150000
C        1.55090000       3.27220000      -0.95050000
N        1.72870000       4.14540000      -1.68760000
H       -0.76010000       1.88440000      -0.52640000
H        1.88820000       2.04130000       2.75560000
H        1.17410000       0.47540000       2.28480000
H        3.36290000       2.05990000       0.83800000
H        2.77720000       0.47300000       0.27640000
