19
Properties=species:S:1:pos:R:3 gdb_52433=T pbc="F F F"
O       -0.09000000      -0.07060000      -0.05360000
C        0.00530000       1.12810000      -0.09370000
C        1.30820000       1.89640000      -0.09910000
C        1.38590000       2.87930000      -1.27790000
C        2.63890000       3.74280000      -1.22640000
O        2.61850000       4.61450000      -2.33680000
C        3.75630000       5.45320000      -2.38940000
C        3.67770000       6.32840000      -3.55120000
C        3.63840000       7.06160000      -4.50110000
H       -0.90370000       1.77440000      -0.13210000
H        1.35660000       2.45920000       0.84550000
H        2.13430000       1.17930000      -0.10690000
H        1.37390000       2.33220000      -2.22690000
H        0.50890000       3.53740000      -1.28070000
H        2.67000000       4.31780000      -0.28390000
H        3.54380000       3.11110000      -1.24760000
H        3.83030000       6.06140000      -1.47120000
H        4.67860000       4.84920000      -2.44120000
H        3.59770000       7.70700000      -5.34340000
