18
Properties=species:S:1:pos:R:3 gdb_79004=T pbc="F F F"
C       -0.21590000       1.62930000      -0.11030000
C       -0.02780000       0.12850000       0.01750000
C        1.19890000      -0.56520000      -0.65420000
C        2.19370000      -0.13280000       0.44510000
C        2.51090000      -1.56330000       0.92540000
C        2.23480000      -1.57060000       2.43800000
C        1.11690000      -0.84610000       2.59370000
C        0.83270000      -0.45050000       1.15950000
N        1.08950000      -1.74360000       0.33690000
H        0.72300000       2.17050000       0.04490000
H       -0.59200000       1.88790000      -1.10570000
H       -0.94090000       1.99890000       0.62250000
H       -0.96200000      -0.42320000      -0.13650000
H        1.37560000      -0.73240000      -1.71720000
H        2.80350000       0.77440000       0.52180000
H        3.31730000      -2.18610000       0.53430000
H        2.81310000      -2.09070000       3.18890000
H        0.55280000      -0.61560000       3.48460000
