19
Properties=species:S:1:pos:R:3 gdb_112293=T pbc="F F F"
C        0.07900000       1.55970000       0.01890000
C        0.02740000       0.03190000       0.10930000
C       -1.38990000      -0.54560000       0.01280000
N       -2.05650000      -0.26650000      -1.25660000
C       -2.61660000      -1.33780000      -1.90460000
O       -3.31190000      -1.29940000      -2.89540000
C       -2.20280000      -2.55780000      -1.11000000
N       -0.72170000      -2.69890000      -1.06490000
C       -1.43600000      -2.07440000       0.06080000
H        1.10270000       1.92350000       0.14660000
H       -0.27020000       1.91930000      -0.95520000
H       -0.53930000       2.02970000       0.79230000
H        0.63280000      -0.42280000      -0.68040000
H        0.45290000      -0.29080000       1.06810000
H       -1.99340000      -0.15140000       0.84570000
H       -2.16980000       0.66290000      -1.62680000
H       -2.83610000      -3.43560000      -1.11880000
H       -0.50150000      -3.66290000      -0.82210000
H       -1.46200000      -2.56940000       1.02470000
