18
Properties=species:S:1:pos:R:3 gdb_111654=T pbc="F F F"
C       -0.34200000       1.40340000      -0.20090000
C        0.22100000       0.01100000       0.11690000
C        0.88260000      -0.62640000      -1.08540000
C        0.93170000      -2.08300000      -1.36140000
C       -0.02220000      -3.02090000      -0.63770000
O       -1.32920000      -2.54950000      -0.98160000
C       -1.25650000      -1.50440000      -1.86340000
O       -2.22380000      -0.93870000      -2.27100000
N        0.09840000      -1.22000000      -2.21820000
H        0.44250000       2.06960000      -0.57520000
H       -1.12470000       1.34070000      -0.96160000
H       -0.77130000       1.86040000       0.69510000
H        0.98000000       0.08490000       0.90620000
H       -0.57440000      -0.62850000       0.51240000
H        1.71720000      -0.04660000      -1.47570000
H        1.81040000      -2.51920000      -1.82610000
H        0.08930000      -4.04870000      -0.99650000
H        0.07780000      -3.01540000       0.45230000
