18
Properties=species:S:1:pos:R:3 gdb_96950=T pbc="F F F"
C       -0.07530000       1.43530000       0.10440000
N       -0.02260000      -0.01830000       0.13080000
C       -1.08920000      -0.67550000       0.04350000
O       -2.37830000      -0.17500000      -0.08120000
C       -3.15780000      -1.37360000      -0.13430000
C       -2.60660000      -2.40980000       0.88350000
C       -3.00200000      -3.54490000      -0.08790000
C       -2.43480000      -2.43790000      -1.00500000
C       -1.29520000      -2.15890000       0.04680000
H        0.53770000       1.79870000      -0.72820000
H       -1.08490000       1.84990000       0.00640000
H        0.37850000       1.82480000       1.02290000
H       -4.21670000      -1.14380000      -0.23410000
H       -2.69540000      -2.37760000       1.96960000
H       -2.41550000      -4.46350000      -0.02090000
H       -4.06910000      -3.76700000      -0.18170000
H       -2.32600000      -2.43780000      -2.08980000
H       -0.42960000      -2.80990000       0.13520000
