19
Properties=species:S:1:pos:R:3 gdb_128679=T pbc="F F F"
C        0.06670000       1.39750000      -0.02750000
O        0.05150000      -0.02480000       0.00080000
C        0.63000000      -0.63470000      -1.05140000
N        1.19450000       0.02060000      -2.05330000
N        1.63400000      -0.97660000      -2.86600000
C        1.35260000      -2.22070000      -2.39720000
C        1.76350000      -3.45530000      -3.13070000
C        0.68870000      -2.04580000      -1.19580000
C        0.14970000      -3.06760000      -0.24620000
H        1.09320000       1.77950000      -0.04810000
H       -0.46040000       1.77940000      -0.90850000
H       -0.43770000       1.72350000       0.88350000
H        2.09650000      -0.73360000      -3.72400000
H        2.81300000      -3.71390000      -2.94530000
H        1.15570000      -4.30750000      -2.81790000
H        1.63820000      -3.33790000      -4.21260000
H        0.73780000      -3.12090000       0.67800000
H       -0.87860000      -2.83120000       0.04700000
H        0.14910000      -4.06700000      -0.69130000
