22
Properties=species:S:1:pos:R:3 gdb_112662=T pbc="F F F"
C        0.04860000       1.61790000      -0.06630000
C        0.03940000       0.08610000      -0.07170000
C       -1.35250000      -0.53080000       0.08110000
C       -1.36240000      -2.07640000       0.03370000
C       -2.54810000      -2.49190000       0.92070000
C       -2.43380000      -3.83670000       1.63250000
C       -2.68670000      -1.31480000       1.89930000
O       -3.33040000      -1.29500000       2.92660000
N       -1.95570000      -0.27780000       1.38460000
H        1.05920000       2.00470000      -0.22660000
H       -0.59220000       2.02220000      -0.85780000
H       -0.30350000       2.02340000       0.88860000
H        0.46360000      -0.27730000      -1.01630000
H        0.68050000      -0.29710000       0.73170000
H       -1.99780000      -0.13100000      -0.71920000
H       -1.42560000      -2.45230000      -0.99010000
H       -0.42870000      -2.45260000       0.46950000
H       -3.47170000      -2.48320000       0.32380000
H       -1.49480000      -3.90420000       2.19230000
H       -3.25580000      -3.95010000       2.34400000
H       -2.46580000      -4.66820000       0.92190000
H       -2.04390000       0.64310000       1.78440000
