15
Properties=species:S:1:pos:R:3 gdb_131616=T pbc="F F F"
O        0.12220000       1.38650000       0.06800000
C        0.06390000      -0.01150000       0.20700000
C       -1.37940000      -0.50280000      -0.02160000
O       -1.85120000      -0.01870000      -1.26910000
C       -1.46660000      -1.99380000       0.07670000
N       -1.68860000      -2.74020000      -0.97180000
O       -1.63730000      -4.04350000      -0.46650000
C       -1.38890000      -3.91900000       0.83770000
N       -1.26890000      -2.69720000       1.24770000
H       -0.35430000       1.58760000      -0.74810000
H        0.72720000      -0.52670000      -0.50940000
H        0.39430000      -0.26480000       1.21870000
H       -2.01610000      -0.05590000       0.75030000
H       -1.64130000      -0.67420000      -1.94610000
H       -1.31670000      -4.83010000       1.41350000
