21
Properties=species:S:1:pos:R:3 gdb_103462=T pbc="F F F"
C       -0.07850000       1.58590000       0.09280000
C        0.01620000       0.08460000       0.05700000
C       -1.21800000      -0.82740000      -0.06390000
C       -0.57940000      -1.83450000       0.94090000
C        0.66280000      -0.94400000       1.03030000
C        1.23820000      -0.68850000      -0.33480000
O        1.14880000      -1.65670000      -1.36320000
C        2.56690000       0.04830000      -0.40770000
O        3.65200000      -0.86080000      -0.49320000
H        0.87000000       2.06240000       0.35550000
H       -0.38520000       1.97970000      -0.88440000
H       -0.82570000       1.91160000       0.82530000
H       -2.11820000      -0.35510000       0.33700000
H       -1.42630000      -1.20470000      -1.06740000
H       -1.12730000      -1.88330000       1.88410000
H       -0.42160000      -2.85640000       0.58100000
H        1.25830000      -0.77610000       1.92220000
H        1.47160000      -2.48880000      -1.00130000
H        2.56260000       0.73360000      -1.27010000
H        2.73130000       0.64600000       0.49300000
H        3.51260000      -1.35220000      -1.31060000
