17
Properties=species:S:1:pos:R:3 gdb_71736=T pbc="F F F"
O       -0.24930000       1.27170000       0.22270000
C        0.00020000      -0.09310000       0.10520000
C        1.11280000      -0.80230000       0.85740000
C        0.75330000      -2.22280000       0.46860000
C        0.14990000      -2.26660000      -0.93000000
C       -0.75170000      -2.37830000       0.28240000
C       -1.24600000      -0.93740000       0.03260000
O       -2.50380000      -0.46990000       0.31860000
C       -0.34850000      -0.82810000      -1.19990000
H        0.31840000       1.75110000      -0.39000000
H        2.11250000      -0.51310000       0.51140000
H        1.04790000      -0.62570000       1.93670000
H        1.33050000      -3.06860000       0.82330000
H        0.38330000      -3.01530000      -1.67450000
H       -1.34260000      -3.21350000       0.63150000
H       -2.41320000       0.47850000       0.48460000
H       -0.47950000      -0.33220000      -2.15280000
