22
Properties=species:S:1:pos:R:3 gdb_62037=T pbc="F F F"
C        0.08700000       1.62820000       0.21940000
C        0.02300000       0.10260000      -0.00450000
C        0.66480000      -0.33970000      -1.34150000
C       -0.05950000       0.18600000      -2.58220000
N        0.57490000      -0.32410000      -3.79240000
C        0.08030000      -1.60190000      -4.29440000
C       -0.24090000      -0.33040000      -5.00000000
C        0.65050000      -0.60340000       1.11240000
C        1.18660000      -1.17520000       2.02410000
H        1.12510000       1.97430000       0.20450000
H       -0.46680000       2.16270000      -0.55700000
H       -0.34410000       1.89330000       1.18810000
H       -1.03720000      -0.18980000      -0.02910000
H        1.71120000      -0.01700000      -1.36890000
H        0.67540000      -1.43450000      -1.37730000
H       -1.13160000      -0.08800000      -2.53190000
H       -0.01170000       1.27980000      -2.62470000
H        0.83020000      -2.28120000      -4.68910000
H       -0.73140000      -2.08470000      -3.75120000
H       -1.26580000       0.03120000      -4.92700000
H        0.27110000      -0.06190000      -5.91980000
H        1.65040000      -1.68440000       2.83210000
