15
Properties=species:S:1:pos:R:3 gdb_44731=T pbc="F F F"
O       -0.45800000       0.21840000       0.22580000
C       -0.14250000       1.31630000      -0.09320000
O       -0.86390000       2.21130000      -0.86090000
C        0.20840000       3.20240000      -0.81170000
C        0.01140000       4.20090000       0.34350000
C        0.87720000       3.27600000       1.27890000
C        0.29710000       2.79860000       2.51500000
C       -0.20530000       2.40310000       3.53270000
C        1.04470000       2.25910000       0.08490000
H        0.48220000       3.54090000      -1.80900000
H        0.46490000       5.17950000       0.17650000
H       -1.02980000       4.32500000       0.64160000
H        1.84410000       3.74630000       1.47860000
H       -0.64650000       2.04320000       4.42910000
H        2.03850000       1.86970000      -0.12270000
