18
Properties=species:S:1:pos:R:3 gdb_55939=T pbc="F F F"
N       -0.01350000       1.39580000       0.07780000
C        0.08340000       0.01290000      -0.03820000
O        1.14810000      -0.56310000      -0.15900000
N       -1.13210000      -0.63680000       0.02670000
C       -1.21030000      -2.07430000       0.06490000
C       -1.60340000      -2.84580000       1.36330000
N       -2.67730000      -3.61410000       0.63740000
C       -3.64460000      -2.59600000       0.20600000
C       -2.40770000      -2.75050000      -0.58950000
H        0.84340000       1.85890000      -0.18570000
H       -0.84300000       1.83920000      -0.28850000
H       -1.93420000      -0.11450000       0.34130000
H       -0.26170000      -2.43960000      -0.32600000
H       -0.82590000      -3.51670000       1.73170000
H       -1.98490000      -2.24260000       2.19460000
H       -4.55420000      -3.01690000      -0.21160000
H       -3.80650000      -1.72120000       0.83510000
H       -2.42110000      -3.16350000      -1.59330000
