17
Properties=species:S:1:pos:R:3 gdb_92866=T pbc="F F F"
C       -0.06220000       1.32880000      -0.55960000
N        0.01300000       0.03820000       0.10350000
C       -1.24460000      -0.63130000       0.33350000
C       -1.14350000      -1.94910000       1.01950000
C        0.01760000      -2.54860000       1.29610000
C        1.28710000      -1.93910000       0.89070000
O        2.36120000      -2.47600000       1.07550000
C        1.23860000      -0.58650000       0.18540000
N        2.30110000      -0.04130000      -0.27110000
H        0.86100000       1.87610000      -0.37120000
H       -0.17930000       1.22730000      -1.64790000
H       -0.91660000       1.88830000      -0.16570000
H       -1.89870000       0.02480000       0.93040000
H       -1.79080000      -0.78140000      -0.61750000
H       -2.09030000      -2.41260000       1.28330000
H        0.07570000      -3.50990000       1.79530000
H        3.08540000      -0.65200000      -0.03520000
