18
Properties=species:S:1:pos:R:3 gdb_13419=T pbc="F F F"
O       -0.11260000       1.42960000      -0.08870000
C        0.01420000       0.01610000      -0.03780000
C       -1.39060000      -0.57190000      -0.00270000
C       -1.39500000      -2.09180000       0.09130000
C       -2.80000000      -2.72710000       0.09100000
O       -2.62710000      -3.91920000      -0.65850000
C       -1.69120000      -3.57570000      -1.64600000
O       -0.76450000      -2.68660000      -1.05380000
H        0.76720000       1.80580000      -0.18210000
H        0.54900000      -0.37580000      -0.91440000
H        0.57200000      -0.30240000       0.85880000
H       -1.92630000      -0.15600000       0.86030000
H       -1.93180000      -0.25730000      -0.90240000
H       -0.83410000      -2.41300000       0.98060000
H       -3.16270000      -2.99210000       1.08590000
H       -3.53030000      -2.05910000      -0.39280000
H       -1.17630000      -4.48300000      -1.97760000
H       -2.18720000      -3.08730000      -2.50500000
