15
Properties=species:S:1:pos:R:3 gdb_49848=T pbc="F F F"
N       -0.05520000       1.20600000       0.39650000
C        0.01240000       0.00290000      -0.00580000
N        1.11510000      -0.74500000      -0.42250000
C        0.78430000      -2.10550000      -0.80650000
C        1.56460000      -3.13840000      -0.00680000
O        2.45090000      -2.85040000       0.75320000
C       -0.72680000      -2.19830000      -0.59890000
O       -1.09720000      -2.01880000       0.76280000
C       -1.18810000      -0.88700000      -0.12760000
H        0.86480000       1.65120000       0.40240000
H        1.99320000      -0.62630000       0.06460000
H        1.00740000      -2.29980000      -1.87040000
H        1.27720000      -4.19400000      -0.20170000
H       -1.32920000      -2.88190000      -1.18870000
H       -2.17750000      -0.47540000      -0.28620000
