18
Properties=species:S:1:pos:R:3 gdb_16754=T pbc="F F F"
C        0.09250000       1.48810000       0.27360000
C       -0.05510000       0.01460000      -0.14470000
C       -1.47010000      -0.48130000      -0.11900000
C       -2.16120000      -0.99420000      -1.14580000
C       -3.49570000      -1.48460000      -0.69860000
O       -3.41300000      -2.54210000       0.29100000
C       -3.58730000      -1.19910000       0.74320000
C       -2.29930000      -0.50150000       1.16140000
H        1.14060000       1.79890000       0.22970000
H       -0.48350000       2.14260000      -0.38820000
H       -0.25950000       1.65310000       1.29680000
H        0.35640000      -0.12540000      -1.15040000
H        0.55520000      -0.60500000       0.52780000
H       -1.79370000      -1.09550000      -2.16020000
H       -4.35220000      -1.54740000      -1.36270000
H       -4.52260000      -0.99600000       1.25820000
H       -1.78830000      -1.03870000       1.97020000
H       -2.50390000       0.51110000       1.53200000
