14
Properties=species:S:1:pos:R:3 gdb_125266=T pbc="F F F"
C       -0.00550000       1.47740000       0.10450000
C       -0.06490000      -0.00200000      -0.02640000
C       -1.07450000      -0.88240000      -0.26260000
C       -0.41020000      -2.13550000      -0.25780000
O       -1.02150000      -3.32790000      -0.47430000
C       -0.48900000      -4.45420000       0.11590000
O       -0.92130000      -5.53200000      -0.13250000
N        0.87990000      -2.03560000      -0.05040000
O        1.09900000      -0.66900000       0.10950000
H        0.65390000       1.90880000      -0.65540000
H       -1.00200000       1.90610000      -0.01360000
H        0.38680000       1.76580000       1.08480000
H       -2.12190000      -0.68760000      -0.41400000
H        0.32700000      -4.21320000       0.81210000
