21
Properties=species:S:1:pos:R:3 gdb_94322=T pbc="F F F"
C       -0.28710000       1.45240000       0.08250000
C        0.11850000      -0.00510000      -0.02270000
O        1.34440000      -0.18300000      -0.77800000
C        2.00440000      -0.84310000       0.32740000
C        0.76480000      -0.67570000       1.19300000
C        0.68960000      -0.31350000       2.65430000
C        0.20410000      -1.66260000       2.16070000
C       -1.27090000      -1.99230000       2.16920000
O        1.04850000      -2.76580000       2.37520000
H        0.50160000       2.04290000       0.55770000
H       -0.47460000       1.86160000      -0.91510000
H       -1.20630000       1.55860000       0.67010000
H       -0.69490000      -0.59400000      -0.47190000
H        2.27410000      -1.87940000       0.09360000
H        2.90130000      -0.30030000       0.65210000
H        1.62480000      -0.29370000       3.20560000
H       -0.04510000       0.42110000       2.97150000
H       -1.87920000      -1.11300000       1.93820000
H       -1.49440000      -2.77110000       1.43310000
H       -1.58180000      -2.35910000       3.15520000
H        0.93800000      -3.05190000       3.28880000
