18
Properties=species:S:1:pos:R:3 gdb_73825=T pbc="F F F"
C        0.04300000       1.45570000       0.10820000
C       -0.08310000      -0.02830000       0.03840000
C       -0.09340000      -0.87920000      -1.01790000
C        0.01760000      -0.63270000      -2.48420000
C       -0.05660000      -2.25220000      -0.34870000
N       -0.92550000      -2.11850000       0.85950000
C       -0.04110000      -0.97490000       1.23700000
C        1.10860000      -1.90910000       0.67100000
O        2.24290000      -2.17560000       0.87450000
H        0.98170000       1.74690000       0.59670000
H        0.03180000       1.91150000      -0.88560000
H       -0.76830000       1.90270000       0.69550000
H        0.01380000       0.43550000      -2.71790000
H        0.94760000      -1.05690000      -2.88380000
H       -0.80490000      -1.10350000      -3.03620000
H       -0.11650000      -3.16140000      -0.94420000
H       -1.85410000      -1.77820000       0.59440000
H       -0.08520000      -0.58600000       2.25270000
