17
Properties=species:S:1:pos:R:3 gdb_55578=T pbc="F F F"
C       -0.21920000       1.58360000      -0.14360000
C        0.18240000       0.16040000       0.15240000
N        0.81170000      -0.14260000       1.20840000
N       -0.22820000      -0.73200000      -0.87190000
C       -0.01410000      -2.09700000      -0.90030000
O        0.56570000      -2.72130000      -0.03330000
N       -0.53310000      -2.70690000      -2.03590000
C       -0.43280000      -4.06870000      -2.27150000
N       -0.92860000      -4.56430000      -3.33010000
H        0.12100000       2.21940000       0.67220000
H        0.22790000       1.93380000      -1.08150000
H       -1.30760000       1.67540000      -0.23960000
H        0.99950000      -1.14520000       1.24330000
H       -0.72230000      -0.31760000      -1.64670000
H       -1.01290000      -2.17830000      -2.75040000
H        0.09380000      -4.58680000      -1.46850000
H       -0.77340000      -5.57000000      -3.35580000
