15
Properties=species:S:1:pos:R:3 gdb_61344=T pbc="F F F"
C        0.02220000       1.61110000       0.04930000
C        0.03890000       0.07230000      -0.01270000
N        0.63910000      -0.44750000      -1.23510000
C       -0.10640000      -0.60190000      -2.36940000
N       -1.35850000      -0.34280000      -2.40680000
C        0.65200000      -1.09460000      -3.50870000
N        1.22150000      -1.47580000      -4.43960000
C        0.74240000      -0.50150000       1.14310000
N        1.31100000      -0.92820000       2.05330000
H        1.03830000       2.01220000       0.01610000
H       -0.54620000       1.99030000      -0.80210000
H       -0.45580000       1.94700000       0.97300000
H       -0.99500000      -0.28880000      -0.00220000
H        1.63950000      -0.54640000      -1.28620000
H       -1.75840000      -0.55550000      -3.31620000
