20
Properties=species:S:1:pos:R:3 gdb_37075=T pbc="F F F"
C       -0.05170000       1.57040000      -0.00600000
C        1.45070000       1.97160000      -0.04940000
C        2.11730000       0.82140000      -0.77680000
C        3.51160000       0.28120000      -0.55750000
O        3.41380000      -1.12930000      -0.77030000
C        2.07070000      -1.56940000      -0.55400000
C        1.20470000      -0.35060000      -0.77450000
C       -0.07240000       0.01550000      -0.04560000
N        1.52530000       0.33870000      -2.03990000
H       -0.56180000       1.96930000       0.87430000
H       -0.57960000       1.97980000      -0.87340000
H        1.60440000       2.94790000      -0.52180000
H        1.86360000       2.03800000       0.96460000
H        4.26180000       0.65940000      -1.25890000
H        3.84110000       0.51170000       0.46950000
H        1.88670000      -2.39110000      -1.25300000
H        1.93000000      -1.94290000       0.47420000
H       -0.03360000      -0.39870000       0.96930000
H       -0.98210000      -0.37400000      -0.51540000
H        0.75430000       0.93840000      -2.32410000
