17
Properties=species:S:1:pos:R:3 gdb_77655=T pbc="F F F"
C       -0.06080000       1.58250000       0.03160000
C       -0.00060000       0.08430000       0.02890000
C        0.65290000      -0.78550000      -1.04220000
O        1.13180000      -1.74370000      -0.05960000
C        0.65600000      -0.93300000       1.00110000
C        1.41000000      -0.74180000       2.23990000
O        2.47850000      -1.25170000       2.48420000
C       -0.86780000      -0.79470000       0.87190000
O       -1.55710000      -0.10810000       1.86590000
H        0.92650000       2.02100000      -0.14280000
H       -0.73050000       1.93370000      -0.76270000
H       -0.45010000       1.95510000       0.98060000
H       -0.00380000      -1.24740000      -1.78840000
H        1.49530000      -0.29150000      -1.53970000
H        0.89630000      -0.07090000       2.96230000
H       -1.38000000      -1.64960000       0.42460000
H       -1.73670000      -0.71780000       2.58940000
