14
Properties=species:S:1:pos:R:3 gdb_528=T pbc="F F F"
C       -0.04040000       1.50940000       0.01070000
C       -0.02560000      -0.00900000       0.00240000
O       -1.36390000      -0.46930000       0.01270000
C       -1.44790000      -1.87900000       0.00590000
C       -2.84350000      -2.29860000       0.01720000
C       -3.98420000      -2.67350000       0.02600000
H        0.98170000       1.89960000       0.00300000
H       -0.56610000       1.89230000      -0.86840000
H       -0.54920000       1.88270000       0.90370000
H        0.49950000      -0.38810000      -0.89130000
H        0.51650000      -0.39760000       0.88160000
H       -0.94480000      -2.29330000      -0.88540000
H       -0.92770000      -2.30290000       0.88290000
H       -4.99540000      -2.99730000       0.03320000
