19
Properties=species:S:1:pos:R:3 gdb_108213=T pbc="F F F"
O       -0.03930000       1.40360000       0.06040000
C       -0.01550000       0.00580000      -0.09270000
C       -1.40520000      -0.59720000      -0.07090000
C       -1.54680000      -2.13280000      -0.04370000
C       -3.02510000      -2.28490000      -0.51390000
C       -3.41950000      -0.80140000      -0.68940000
C       -3.50530000      -0.13020000       0.69450000
O       -2.11870000      -0.07040000       1.06960000
O       -2.20320000      -0.21450000      -1.17540000
H       -0.70940000       1.57850000       0.73350000
H        0.45240000      -0.22140000      -1.05570000
H        0.57750000      -0.48620000       0.69590000
H       -0.84490000      -2.60330000      -0.73750000
H       -1.36580000      -2.52680000       0.95760000
H       -3.09240000      -2.81190000      -1.46770000
H       -3.65770000      -2.80510000       0.20950000
H       -4.24400000      -0.59150000      -1.36900000
H       -3.91980000       0.88260000       0.63930000
H       -4.07030000      -0.71500000       1.42830000
