20
Properties=species:S:1:pos:R:3 gdb_32573=T pbc="F F F"
C        0.04100000       1.59320000       0.04020000
C        0.00240000       0.06450000      -0.04810000
N        0.66320000      -0.45850000      -1.23320000
C        0.07150000      -0.78720000      -2.45280000
C       -1.40110000      -0.69800000      -2.67670000
C        1.07450000      -1.18830000      -3.29830000
C        2.31990000      -1.10340000      -2.60100000
C        2.01530000      -0.64890000      -1.34340000
O        2.77470000      -0.36610000      -0.24770000
H        1.07460000       1.94700000       0.08010000
H       -0.44560000       2.04980000      -0.82690000
H       -0.47490000       1.93400000       0.94360000
H        0.48930000      -0.37140000       0.82890000
H       -1.03070000      -0.29230000      -0.05650000
H       -1.79600000       0.31720000      -2.53940000
H       -1.62400000      -0.99790000      -3.70370000
H       -1.97520000      -1.35890000      -2.01340000
H        0.93400000      -1.51640000      -4.31750000
H        3.30270000      -1.34450000      -2.97570000
H        3.68370000      -0.60840000      -0.44660000
