19
Properties=species:S:1:pos:R:3 gdb_83479=T pbc="F F F"
C       -0.13550000       1.54400000       0.00710000
C        0.05160000       0.02900000       0.00990000
C        1.07290000      -0.57850000      -0.98040000
C        2.42460000      -0.02790000      -0.49480000
C        2.20870000      -0.03710000       1.03390000
O        2.98970000       0.30270000       1.88180000
C        0.78830000      -0.58150000       1.23030000
C        0.85760000      -2.05700000       0.76840000
O        1.03230000      -1.97770000      -0.65830000
H        0.79350000       2.08660000       0.20610000
H       -0.52360000       1.88670000      -0.95780000
H       -0.85480000       1.84120000       0.77670000
H       -0.91700000      -0.46050000      -0.13610000
H        0.86330000      -0.46460000      -2.04420000
H        3.26360000      -0.66800000      -0.77850000
H        2.63850000       0.98700000      -0.84450000
H        0.37990000      -0.42860000       2.22790000
H        1.68960000      -2.61200000       1.21700000
H       -0.07610000      -2.58560000       0.99780000
