19
Properties=species:S:1:pos:R:3 gdb_113477=T pbc="F F F"
O        0.18730000       0.19860000       1.03240000
C       -0.29910000       0.16010000      -0.29970000
C       -1.64980000      -0.53350000      -0.39480000
C       -1.86410000      -1.64700000      -1.42130000
C       -1.69810000      -1.96340000       0.02320000
O       -0.50100000      -2.61530000       0.52410000
C       -1.31700000      -3.38820000       1.42150000
C       -2.04880000      -2.50750000       2.38480000
C       -2.59070000      -2.71100000       0.98020000
H        0.34050000      -0.72580000       1.26870000
H       -0.38070000       1.19950000      -0.63260000
H        0.41920000      -0.34010000      -0.96610000
H       -2.51060000       0.07470000      -0.13050000
H       -2.84650000      -1.77000000      -1.86590000
H       -1.03400000      -1.88170000      -2.08050000
H       -1.04490000      -4.42520000       1.57380000
H       -2.59640000      -3.02470000       3.16660000
H       -1.62340000      -1.54780000       2.66510000
H       -3.56770000      -3.11700000       0.75730000
