16
Properties=species:S:1:pos:R:3 gdb_96952=T pbc="F F F"
C       -0.06600000       1.44860000       0.10350000
N       -0.01740000      -0.00520000       0.13790000
C       -1.07910000      -0.66540000       0.04640000
O       -2.37240000      -0.15680000      -0.09170000
C       -3.16260000      -1.33410000      -0.14590000
C       -2.61440000      -2.40980000       0.83370000
O       -3.01010000      -3.47650000      -0.08730000
C       -2.43760000      -2.44620000      -0.95520000
C       -1.27760000      -2.14940000       0.05700000
H        0.55580000       1.80300000      -0.72600000
H       -1.07300000       1.86560000      -0.00450000
H        0.38300000       1.83870000       1.02370000
H       -4.22310000      -1.12500000      -0.25490000
H       -2.77740000      -2.55370000       1.90090000
H       -2.38920000      -2.63350000      -2.02700000
H       -0.42310000      -2.81070000       0.15480000
