22
Properties=species:S:1:pos:R:3 gdb_116784=T pbc="F F F"
C       -0.97110000       1.09710000      -0.50840000
O       -0.86220000       0.04870000       0.44360000
C       -1.31510000      -1.15720000       0.03130000
N       -1.25100000      -2.14760000       0.80170000
C       -1.73580000      -3.44880000       0.36560000
C       -2.22610000      -3.60250000      -1.06240000
C       -3.19810000      -4.70640000      -1.40780000
C       -3.63930000      -3.26670000      -1.50080000
C       -4.68590000      -2.70930000      -0.55970000
H       -0.57960000       1.99380000      -0.02610000
H       -0.37950000       0.88930000      -1.40910000
H       -2.01450000       1.27460000      -0.79820000
H       -1.72090000      -1.15880000      -0.98850000
H       -0.91960000      -4.16480000       0.53470000
H       -2.52390000      -3.75250000       1.06620000
H       -1.45670000      -3.41440000      -1.80850000
H       -3.04360000      -5.27380000      -2.31900000
H       -3.59290000      -5.29420000      -0.58360000
H       -3.71380000      -2.87350000      -2.51240000
H       -4.60560000      -3.13910000       0.44270000
H       -4.59990000      -1.62160000      -0.45970000
H       -5.69340000      -2.93050000      -0.92890000
