21
Properties=species:S:1:pos:R:3 gdb_87971=T pbc="F F F"
C       -0.10150000       1.49760000      -0.07240000
C        0.10610000      -0.01220000       0.00730000
C        1.01270000      -0.58920000      -1.08750000
O        1.41940000      -1.86450000      -0.59520000
C        1.60760000      -1.72490000       0.80840000
C        1.80170000      -3.01320000       1.55890000
C        2.98860000      -2.10600000       1.27080000
O        3.92230000      -2.47020000       0.30470000
C        0.81990000      -0.50900000       1.28810000
H        0.85490000       2.02930000      -0.01010000
H       -0.58430000       1.78460000      -1.01280000
H       -0.73500000       1.85380000       0.74580000
H       -0.86410000      -0.51730000      -0.06730000
H        0.51070000      -0.74750000      -2.04550000
H        1.88550000       0.06400000      -1.25100000
H        1.41960000      -3.07840000       2.57320000
H        1.74330000      -3.92930000       0.97980000
H        3.44030000      -1.56490000       2.09850000
H        3.45440000      -2.41510000      -0.54140000
H        1.49330000       0.26380000       1.67640000
H        0.11180000      -0.75880000       2.08290000
