21
Properties=species:S:1:pos:R:3 gdb_93149=T pbc="F F F"
O       -0.24020000       1.52480000       0.27830000
C        0.01420000       0.14860000      -0.00720000
C        0.88840000      -0.45430000       1.12360000
C        1.60480000      -1.75250000       0.82810000
C        1.04540000      -2.95800000       0.73010000
C       -0.44080000      -3.22240000       0.83310000
C       -1.11930000      -2.96880000      -0.49580000
C       -1.49640000      -1.76510000      -0.92490000
C       -1.39290000      -0.47150000      -0.15210000
H        0.60670000       1.96570000       0.39910000
H        0.54940000       0.05150000      -0.96450000
H        1.64640000       0.29910000       1.37160000
H        0.25910000      -0.54810000       2.01810000
H        2.67970000      -1.67630000       0.68030000
H        1.67740000      -3.81300000       0.50130000
H       -0.61810000      -4.25250000       1.15730000
H       -0.87660000      -2.56650000       1.59690000
H       -1.24200000      -3.82680000      -1.15260000
H       -1.92380000      -1.68810000      -1.92210000
H       -1.81630000      -0.58590000       0.85410000
H       -1.99890000       0.29010000      -0.65030000
