17
Properties=species:S:1:pos:R:3 gdb_72067=T pbc="F F F"
C       -0.36810000       1.36410000       0.08200000
C       -0.02300000      -0.09070000       0.01200000
C        0.96300000      -0.81650000      -0.91640000
C        0.25750000      -2.11730000      -0.46730000
O        0.59720000      -2.20420000       0.95020000
C       -0.23070000      -1.06610000       1.14470000
C       -1.02830000      -1.28070000      -0.13450000
C       -2.46210000      -1.27890000      -0.38010000
O       -3.22410000      -0.46550000       0.10150000
H        0.44250000       1.93560000       0.54790000
H       -0.54450000       1.77760000      -0.91610000
H       -1.28080000       1.51180000       0.66600000
H        0.76490000      -0.57880000      -1.96440000
H        2.03300000      -0.74680000      -0.69590000
H        0.33880000      -3.06610000      -0.99230000
H       -0.58300000      -0.81920000       2.13770000
H       -2.83100000      -2.08420000      -1.05300000
