18
Properties=species:S:1:pos:R:3 gdb_50537=T pbc="F F F"
O       -0.77570000       1.51250000       0.59860000
C        0.07400000       1.05510000      -0.12090000
C        1.46210000       1.65630000      -0.25380000
O        2.36100000       0.82250000      -1.00360000
C        2.53780000       1.83140000      -2.02280000
C        1.58230000       2.80390000      -1.29990000
N        0.35510000       3.08160000      -2.01130000
C       -0.46700000       4.16820000      -1.47930000
C        0.29770000       4.34830000      -2.74210000
H       -0.08700000       0.15210000      -0.74910000
H        1.84720000       1.89990000       0.74410000
H        3.58200000       2.15480000      -2.09890000
H        2.17750000       1.49750000      -3.00180000
H        2.06770000       3.70990000      -0.90570000
H       -1.53730000       3.99230000      -1.49800000
H       -0.10670000       4.69150000      -0.59620000
H        1.17390000       4.99380000      -2.71010000
H       -0.20560000       4.31080000      -3.70320000
