16
Properties=species:S:1:pos:R:3 gdb_2157=T pbc="F F F"
C        0.32050000       1.53900000      -0.03640000
C       -0.06620000       0.05210000       0.01690000
C        0.49060000      -0.78080000      -1.15300000
C        1.82040000      -1.29690000      -0.58670000
O        1.61410000      -1.40560000       0.83110000
C        0.56190000      -0.62540000       1.22360000
N        0.18200000      -0.48350000       2.41940000
H        1.40430000       1.66940000      -0.12890000
H       -0.15250000       2.02810000      -0.89370000
H       -0.00170000       2.04400000       0.87730000
H       -1.15240000      -0.02660000       0.09580000
H       -0.17250000      -1.62230000      -1.37450000
H        0.62430000      -0.20370000      -2.07100000
H        2.10860000      -2.28220000      -0.96030000
H        2.64710000      -0.59970000      -0.77230000
H        0.77960000      -1.01830000       3.05250000
