14
Properties=species:S:1:pos:R:3 gdb_18922=T pbc="F F F"
O        0.00740000       0.09830000       0.09580000
C       -0.02470000       1.29180000       0.02450000
C       -1.18920000       2.28530000      -0.04560000
C       -0.95660000       2.98130000       1.33750000
C        0.32440000       3.53550000       0.67730000
C       -0.34740000       3.45800000      -0.71170000
O        0.81910000       2.89190000      -1.34250000
C        1.09890000       2.34650000      -0.01180000
H       -2.15990000       1.93990000      -0.38780000
H       -1.67720000       3.78140000       1.52370000
H       -0.88030000       2.33990000       2.21950000
H        0.89660000       4.38480000       1.04460000
H       -0.84360000       4.25520000      -1.26190000
H        2.13510000       2.06880000       0.16330000
