17
Properties=species:S:1:pos:R:3 gdb_38174=T pbc="F F F"
C       -0.08250000       1.51390000      -0.18910000
O        1.25950000       1.62820000       0.35020000
C        1.41300000       0.18510000       0.45540000
C        1.80400000      -0.32860000       1.84600000
C        0.97870000      -1.53180000       2.25710000
C       -0.25310000      -1.79330000       1.80980000
C       -0.92770000      -0.88160000       0.84990000
O       -0.62730000      -1.05700000      -0.57400000
C       -0.06000000       0.02460000       0.11540000
H       -0.80350000       2.13710000       0.35140000
H       -0.12020000       1.75150000      -1.26020000
H        2.08820000      -0.19560000      -0.32150000
H        2.86900000      -0.57650000       1.89180000
H        1.64840000       0.48620000       2.56550000
H        1.43660000      -2.20730000       2.97550000
H       -0.79230000      -2.67100000       2.15370000
H       -1.96820000      -0.62050000       1.03340000
