20
Properties=species:S:1:pos:R:3 gdb_96882=T pbc="F F F"
C        0.37890000       1.41300000       0.06670000
N        0.42820000      -0.04220000       0.10120000
C        0.47470000      -0.67400000      -0.97660000
C        0.52470000      -2.13620000      -1.35640000
C        0.50870000      -1.59900000      -2.80770000
O        0.48800000      -0.22100000      -2.28850000
C        1.69000000      -1.86520000      -3.68310000
C        1.61520000      -2.97730000      -4.70430000
C        1.62490000      -1.54110000      -5.15470000
H        1.24160000       1.81420000       0.61030000
H        0.37220000       1.83850000      -0.94370000
H       -0.51730000       1.75360000       0.59730000
H        1.44140000      -2.65310000      -1.06470000
H       -0.33910000      -2.72690000      -1.04760000
H       -0.42580000      -1.79290000      -3.34600000
H        2.64830000      -1.71590000      -3.19290000
H        2.50240000      -3.57910000      -4.86350000
H        0.68490000      -3.53000000      -4.78670000
H        0.70090000      -1.12150000      -5.53810000
H        2.51920000      -1.15250000      -5.62770000
