20
Properties=species:S:1:pos:R:3 gdb_59895=T pbc="F F F"
C       -0.10320000       1.72080000       0.29720000
C        0.00070000       0.20760000       0.06300000
C        0.74090000      -0.48430000       1.21460000
C       -1.38420000      -0.42410000      -0.14060000
C       -2.06650000      -0.04870000      -1.44620000
O       -1.50430000       0.47740000      -2.37090000
C       -3.56730000      -0.41020000      -1.50960000
C       -4.15190000      -0.26710000      -2.83630000
N       -4.63200000      -0.16560000      -3.88120000
H        0.89070000       2.16410000       0.41350000
H       -0.59460000       2.22090000      -0.54110000
H       -0.67020000       1.93850000       1.21100000
H        0.56490000       0.04750000      -0.86300000
H        0.20190000      -0.36350000       2.16210000
H        0.85750000      -1.55800000       1.03170000
H        1.73970000      -0.05700000       1.34710000
H       -1.30720000      -1.52240000      -0.14300000
H       -2.05500000      -0.18680000       0.69740000
H       -3.71500000      -1.43370000      -1.14560000
H       -4.09980000       0.23940000      -0.80270000
