15
Properties=species:S:1:pos:R:3 gdb_133638=T pbc="F F F"
F        0.46820000       1.00000000      -0.51000000
C       -0.34100000       1.63170000       0.34460000
F        0.22700000       2.81750000       0.63420000
F       -1.49440000       1.88640000      -0.29510000
C       -0.61160000       0.81020000       1.59800000
N        0.61150000       0.55540000       2.34210000
C        0.95030000       1.56310000       3.35440000
C       -0.03160000       1.70200000       4.43770000
C       -0.86200000       1.77640000       5.30470000
H       -1.38670000       1.33380000       2.17710000
H       -1.03660000      -0.13720000       1.25660000
H        0.55640000      -0.35430000       2.78200000
H        1.92660000       1.29800000       3.77530000
H        1.08270000       2.52490000       2.85090000
H       -1.58440000       1.85520000       6.07930000
