16
Properties=species:S:1:pos:R:3 gdb_32191=T pbc="F F F"
O       -0.00500000       1.40840000       0.00730000
C        0.00820000      -0.00590000       0.00190000
C       -1.41830000      -0.46400000       0.01220000
C       -2.56420000       0.27280000       0.02340000
C       -3.67650000      -0.63870000       0.02990000
C       -3.18000000      -1.90420000       0.02260000
N       -1.78680000      -1.81600000       0.01170000
C       -0.93590000      -2.91210000       0.00170000
O       -1.30770000      -4.05750000       0.00160000
H        0.90610000       1.71450000      -0.00030000
H        0.53070000      -0.39550000      -0.88920000
H        0.54570000      -0.40210000       0.88100000
H       -2.60230000       1.34970000       0.02670000
H       -4.72220000      -0.37130000       0.03900000
H       -3.64440000      -2.87500000       0.02370000
H        0.12850000      -2.62010000      -0.00610000
