16
Properties=species:S:1:pos:R:3 gdb_125815=T pbc="F F F"
C       -0.27200000       1.44780000       0.09050000
C       -0.06560000      -0.03130000       0.04050000
N        0.03430000      -0.65020000      -1.11170000
O        0.21890000      -1.99860000      -0.81010000
C        0.22170000      -2.14240000       0.52150000
C        0.04880000      -0.94660000       1.13780000
C       -0.00190000      -0.64900000       2.61250000
C       -1.29090000      -0.11660000       3.05590000
C       -2.34990000       0.32640000       3.41070000
H        0.56640000       1.94380000       0.59220000
H       -0.35730000       1.84820000      -0.92120000
H       -1.17810000       1.69170000       0.65320000
H        0.35500000      -3.14850000       0.88960000
H        0.22540000      -1.56320000       3.17350000
H        0.78820000       0.06700000       2.87740000
H       -3.28710000       0.71040000       3.72990000
