18
Properties=species:S:1:pos:R:3 gdb_55393=T pbc="F F F"
N        0.65390000       0.03600000       0.80220000
C       -0.17240000       0.32200000      -0.23250000
O        0.02420000       1.20050000      -1.05170000
C       -1.43300000      -0.54470000      -0.30750000
C       -1.64610000      -1.10510000      -1.71800000
C       -2.75400000      -2.12320000      -1.69470000
C       -3.18690000      -2.66100000      -0.55710000
C       -2.56690000      -2.32560000       0.77080000
O       -1.35600000      -1.59670000       0.64710000
H        1.51570000       0.54700000       0.89180000
H        0.44800000      -0.74220000       1.40500000
H       -2.28120000       0.11480000      -0.05950000
H       -1.87450000      -0.27840000      -2.39700000
H       -0.71440000      -1.55450000      -2.08740000
H       -3.20160000      -2.40650000      -2.64340000
H       -4.00920000      -3.37100000      -0.54050000
H       -3.28570000      -1.76790000       1.39860000
H       -2.31220000      -3.24040000       1.31900000
