15
Properties=species:S:1:pos:R:3 gdb_47758=T pbc="F F F"
N        0.21770000       1.02310000      -1.09980000
C        0.06840000       0.06940000      -0.28900000
O        1.03990000      -0.39560000       0.53560000
C        0.64410000      -1.44040000       1.43880000
C       -0.04470000      -2.55700000       0.67320000
O       -1.10250000      -2.07630000      -0.16320000
C       -1.26350000      -0.67400000      -0.21600000
C       -2.08230000      -0.17910000       0.91650000
N       -2.71940000       0.18250000       1.81010000
H        1.15680000       1.41970000      -1.02530000
H        1.56250000      -1.80440000       1.90260000
H       -0.00030000      -1.02650000       2.22190000
H        0.68170000      -3.06550000       0.02770000
H       -0.46070000      -3.28880000       1.37510000
H       -1.80020000      -0.44930000      -1.13970000
