17
Properties=species:S:1:pos:R:3 gdb_18618=T pbc="F F F"
C       -0.16620000       1.49380000       0.10860000
C       -0.01380000       0.00500000      -0.08770000
C        0.74340000      -0.62330000      -1.20860000
C        1.68530000       0.20260000      -2.09660000
C        2.92040000       0.43610000      -1.20160000
C        2.42370000       0.16370000       0.22510000
O        2.90160000       0.57510000       1.24720000
N        1.27840000      -0.68510000       0.16220000
H        0.61370000       2.07360000      -0.39110000
H       -1.13460000       1.81950000      -0.28460000
H       -0.13060000       1.74350000       1.17360000
H       -0.85100000      -0.56920000       0.30610000
H        0.38090000      -1.56730000      -1.60680000
H        1.93150000      -0.35210000      -3.00380000
H        1.22880000       1.14530000      -2.41380000
H        3.71750000      -0.28080000      -1.42940000
H        3.35660000       1.43510000      -1.25990000
