20
Properties=species:S:1:pos:R:3 gdb_59702=T pbc="F F F"
C        0.26190000       1.49830000       0.15100000
C        0.06770000      -0.01270000       0.01650000
O        0.82610000      -0.72260000       0.98440000
C       -1.40650000      -0.43510000       0.06910000
C       -1.66970000      -1.97030000       0.06160000
C       -2.29380000      -1.82900000       1.47600000
N       -1.99720000      -0.38710000       1.42940000
C       -2.72690000       0.58900000       2.03470000
O       -3.49170000       0.39870000       2.95600000
H        1.32640000       1.74150000       0.10710000
H       -0.25350000       2.04030000      -0.64890000
H       -0.12710000       1.85850000       1.11040000
H        0.46110000      -0.34140000      -0.95390000
H        0.44500000      -0.50760000       1.84520000
H       -1.98670000       0.13060000      -0.66970000
H       -2.36070000      -2.30890000      -0.71030000
H       -0.75540000      -2.56190000       0.03050000
H       -3.36620000      -2.02940000       1.55210000
H       -1.77680000      -2.35820000       2.28110000
H       -2.53360000       1.59030000       1.59850000
