15
Properties=species:S:1:pos:R:3 gdb_28853=T pbc="F F F"
O       -0.10370000       1.30750000      -0.30850000
C        0.03810000      -0.02100000      -0.08920000
C        1.26030000      -0.62240000      -0.07890000
C        1.53120000      -1.99080000       0.27220000
N        0.78320000      -3.03680000       0.33190000
C       -0.56550000      -3.08920000      -0.04390000
N       -1.07920000      -4.14390000      -0.55640000
C       -1.48600000      -1.97270000       0.23770000
C       -1.23170000      -0.65390000       0.19110000
H        0.76150000       1.70480000      -0.46380000
H        2.13660000       0.00610000      -0.22530000
H        2.57530000      -2.16800000       0.54740000
H       -0.34180000      -4.84510000      -0.66970000
H       -2.50380000      -2.29240000       0.43920000
H       -2.04910000       0.04390000       0.34460000
