21
Properties=species:S:1:pos:R:3 gdb_88582=T pbc="F F F"
O        0.01870000       1.16040000      -0.78030000
C       -0.00580000      -0.09390000      -0.17230000
C       -0.17890000      -0.21920000       1.31920000
C       -1.29230000      -0.66500000       0.37950000
C       -2.55410000       0.11500000       0.27910000
C       -3.09560000       0.60520000      -0.84530000
C       -4.42700000       1.27540000      -0.60660000
C       -4.46760000       1.42660000       0.93620000
C       -3.45310000       0.38840000       1.47230000
H       -0.87830000       1.51670000      -0.74500000
H        0.68000000      -0.77880000      -0.66280000
H        0.38090000      -0.97310000       1.86250000
H       -0.33040000       0.71020000       1.85910000
H       -1.41580000      -1.74140000       0.27680000
H       -2.67160000       0.47900000      -1.83660000
H       -4.52880000       2.23390000      -1.12770000
H       -5.24460000       0.63940000      -0.97590000
H       -4.13460000       2.43310000       1.20940000
H       -5.47060000       1.29570000       1.34960000
H       -3.94640000      -0.54370000       1.78490000
H       -2.89920000       0.74490000       2.34710000
