25
Properties=species:S:1:pos:R:3 gdb_109928=T pbc="F F F"
C       -0.15560000       1.72890000       0.22740000
C       -0.09600000       0.19790000       0.29460000
C       -1.43990000      -0.46440000       0.00370000
C       -1.95360000      -0.62910000      -1.45670000
C       -1.04810000      -0.30840000      -2.63410000
O       -2.10870000      -2.05570000      -1.27860000
C       -1.58850000      -2.01690000       0.08160000
C       -0.31100000      -2.84480000       0.18020000
C       -2.64180000      -2.50580000       1.07000000
H        0.81750000       2.17300000       0.45860000
H       -0.45060000       2.07760000      -0.76760000
H       -0.88290000       2.12630000       0.94430000
H        0.67530000      -0.16840000      -0.39120000
H        0.22930000      -0.10200000       1.29940000
H       -2.19960000       0.01890000       0.62730000
H       -2.93250000      -0.15750000      -1.62150000
H       -0.04660000      -0.72850000      -2.50610000
H       -1.47700000      -0.74050000      -3.54390000
H       -0.95870000       0.77290000      -2.78380000
H        0.44070000      -2.51290000      -0.53950000
H        0.12180000      -2.79240000       1.18490000
H       -0.54080000      -3.89330000      -0.03570000
H       -2.86190000      -3.56550000       0.90340000
H       -2.29310000      -2.38760000       2.10220000
H       -3.57200000      -1.94260000       0.95230000
