15
Properties=species:S:1:pos:R:3 gdb_49829=T pbc="F F F"
O       -0.55360000       1.19550000       0.95450000
C        0.16040000       0.93920000       0.02110000
C        1.49670000       1.61240000      -0.19770000
O        2.33850000       0.86820000      -1.13280000
C        2.33890000       1.90830000      -2.05070000
O        2.88380000       1.95270000      -3.10410000
C        1.47090000       2.77820000      -1.19390000
C        0.34970000       3.68450000      -1.63700000
C        1.56860000       4.26490000      -0.98610000
H       -0.12290000       0.21820000      -0.77630000
H        2.00950000       1.79810000       0.74860000
H        0.22040000       3.81070000      -2.70610000
H       -0.56830000       3.64320000      -1.06070000
H        1.48550000       4.62520000       0.03330000
H        2.28610000       4.79190000      -1.60530000
