19
Properties=species:S:1:pos:R:3 gdb_101555=T pbc="F F F"
C       -0.22000000       1.33790000      -0.23890000
C        0.03230000      -0.14670000      -0.51160000
C        1.37240000      -0.40810000      -1.20820000
O        2.47270000       0.08350000      -0.44750000
C        1.58770000      -1.88940000      -1.54610000
C        0.74200000      -2.41270000      -2.68000000
O       -0.01830000      -1.75260000      -3.35180000
C        0.87310000      -3.90750000      -3.01520000
O        1.56760000      -4.67010000      -2.39760000
H        0.59420000       1.76940000       0.34910000
H       -0.28700000       1.90040000      -1.17630000
H       -1.15660000       1.48520000       0.30670000
H        0.01540000      -0.71160000       0.43330000
H       -0.76990000      -0.55640000      -1.13460000
H        1.40260000       0.16500000      -2.14140000
H        2.44150000      -0.33440000       0.42070000
H        2.63880000      -2.05070000      -1.82100000
H        1.42660000      -2.53610000      -0.67210000
H        0.25020000      -4.20660000      -3.88470000
