11
Properties=species:S:1:pos:R:3 gdb_131071=T pbc="F F F"
O        0.04160000      -0.01900000       0.12990000
C       -0.03050000       1.14980000      -0.04600000
O        1.10460000       1.94310000       0.13220000
C        1.01660000       3.28360000       0.08790000
N        2.17200000       3.92000000      -0.04680000
C        2.02390000       5.23580000      -0.04870000
N        0.86060000       5.89690000       0.04580000
N       -0.23790000       5.18100000       0.16570000
N       -0.18360000       3.86200000       0.20550000
H       -0.90560000       1.72760000      -0.36210000
H        2.91660000       5.84810000      -0.14000000
