15
Properties=species:S:1:pos:R:3 gdb_130315=T pbc="F F F"
N        0.45700000       1.35460000      -0.04060000
C        0.17340000       0.00730000      -0.03950000
N       -1.05290000      -0.45930000      -0.14120000
O       -0.91380000      -1.85790000      -0.18780000
C        0.38200000      -2.16600000      -0.09640000
C        1.14800000      -1.04990000      -0.00510000
C        2.63720000      -0.89210000       0.09990000
C        2.97980000      -0.33640000       1.47600000
O        2.87110000       0.83070000       1.76560000
H        1.25330000       1.60830000       0.53250000
H       -0.35150000       1.94090000       0.11240000
H        0.62320000      -3.21840000      -0.12190000
H        3.13790000      -1.85210000      -0.05350000
H        2.99740000      -0.18010000      -0.65200000
H        3.29980000      -1.08030000       2.23620000
