22
Properties=species:S:1:pos:R:3 gdb_91316=T pbc="F F F"
C        0.24790000       1.44560000      -0.40660000
C        0.03270000      -0.03380000      -0.09260000
C       -1.46460000      -0.35060000      -0.03510000
C        0.82160000      -1.04540000      -0.98360000
N        1.45240000      -1.69690000       0.20610000
C        2.78950000      -1.11270000       0.54110000
C        2.15600000      -0.20990000       1.63650000
O        2.39690000       1.17840000       1.61310000
C        0.77800000      -0.68400000       1.12000000
H        1.30490000       1.70370000      -0.47140000
H       -0.23350000       1.69230000      -1.36080000
H       -0.19670000       2.08200000       0.36600000
H       -1.94630000      -0.11170000      -0.99030000
H       -1.64340000      -1.41030000       0.17510000
H       -1.96010000       0.23740000       0.74610000
H        0.19730000      -1.74100000      -1.55500000
H        1.54700000      -0.59100000      -1.66890000
H        3.50850000      -1.86160000       0.88900000
H        3.24070000      -0.54010000      -0.27810000
H        2.33540000      -0.61250000       2.64280000
H        3.25000000       1.34290000       2.02700000
H        0.11190000      -1.07620000       1.89550000
