16
Properties=species:S:1:pos:R:3 gdb_15124=T pbc="F F F"
N        0.01050000      -1.00020000       0.62410000
C        0.03540000       0.12030000       0.34760000
C        0.02180000       1.54190000      -0.00930000
O        1.32730000       2.05380000       0.06980000
C        1.38880000       3.43300000      -0.26850000
C        2.82460000       3.87160000      -0.23490000
C        3.14620000       5.26080000       0.18070000
N        3.49500000       4.12570000       1.04600000
H       -0.39500000       1.64480000      -1.02510000
H       -0.66490000       2.06730000       0.67540000
H        0.96160000       3.59350000      -1.27270000
H        0.79000000       4.02600000       0.44450000
H        3.45900000       3.38100000      -0.96930000
H        3.99090000       5.77600000      -0.26670000
H        2.32310000       5.91070000       0.46900000
H        2.83000000       4.04230000       1.81160000
