15
Properties=species:S:1:pos:R:3 gdb_4054=T pbc="F F F"
O       -0.11300000       1.34480000      -0.02140000
N        0.01860000      -0.05460000       0.01430000
C       -1.12090000      -0.63350000       0.03820000
C       -1.25210000      -2.14580000       0.05370000
C       -2.78410000      -2.41050000      -0.02680000
O       -3.29340000      -3.24500000       1.00660000
C       -3.38900000      -1.02420000      -0.01190000
C       -2.46570000      -0.05490000       0.03690000
H        0.80550000       1.63260000      -0.03960000
H       -0.70120000      -2.60460000      -0.77080000
H       -0.85770000      -2.57470000       0.98020000
H       -3.04440000      -2.94240000      -0.94880000
H       -3.17730000      -2.77590000       1.84100000
H       -4.46360000      -0.88000000      -0.02250000
H       -2.64310000       1.01090000       0.06010000
