21
Properties=species:S:1:pos:R:3 gdb_84789=T pbc="F F F"
O        0.08230000       1.50160000       0.64740000
C       -0.06330000       0.21520000       0.03890000
C        0.79600000      -0.81660000       0.73010000
C        0.06310000      -1.65950000       1.45810000
C       -1.41560000      -1.39060000       1.31990000
C       -1.49630000      -0.39960000       0.13930000
C       -2.64830000       0.63750000       0.05500000
C       -2.77870000       0.33780000      -1.46240000
C       -1.96910000      -0.96650000      -1.23760000
H        0.05810000       1.37040000       1.60190000
H        0.21780000       0.38630000      -1.00560000
H        1.87890000      -0.78780000       0.68470000
H        0.45930000      -2.44480000       2.09380000
H       -1.99550000      -2.30100000       1.12690000
H       -1.82570000      -0.96490000       2.24790000
H       -3.52910000       0.30860000       0.61540000
H       -2.39360000       1.65670000       0.35190000
H       -3.78590000       0.23590000      -1.87250000
H       -2.23210000       1.06420000      -2.06980000
H       -1.19380000      -1.22160000      -1.96650000
H       -2.62240000      -1.83530000      -1.11150000
