17
Properties=species:S:1:pos:R:3 gdb_22763=T pbc="F F F"
C       -0.96310000       1.16890000       0.02400000
C       -0.08260000      -0.06970000      -0.04500000
N        1.18860000       0.10440000      -0.81690000
C        2.01940000      -0.48260000       0.28450000
C        3.19070000       0.29100000       0.66380000
C        4.16660000       0.92590000       0.95980000
C        0.76520000      -0.42400000       1.15870000
N        0.46280000      -0.57940000       2.37340000
O        1.57950000      -0.91550000       3.14990000
H       -0.37760000       2.03230000       0.34920000
H       -1.38820000       1.38980000      -0.96030000
H       -1.78540000       1.01190000       0.72900000
H       -0.67690000      -0.93540000      -0.37540000
H        1.23330000      -0.42590000      -1.67990000
H        2.31380000      -1.52960000       0.11350000
H        5.02300000       1.49290000       1.22940000
H        1.20530000      -0.96870000       4.03610000
