18
Properties=species:S:1:pos:R:3 gdb_99062=T pbc="F F F"
C       -0.63690000       1.36180000      -0.58510000
N       -0.94930000      -0.04940000      -0.48180000
C       -0.94090000      -0.71040000       0.70660000
O       -0.66780000      -0.18830000       1.77410000
C       -1.27420000      -2.20730000       0.63340000
C       -2.36470000      -2.62440000      -0.37610000
O       -1.97300000      -2.38330000      -1.73740000
C       -2.74330000      -4.02470000      -0.18800000
C       -3.00630000      -5.18850000      -0.04340000
H        0.25410000       1.53000000      -1.20110000
H       -1.47080000       1.92200000      -1.02260000
H       -0.44620000       1.73210000       0.42270000
H       -1.18580000      -0.57980000      -1.30900000
H       -0.35560000      -2.76360000       0.40670000
H       -1.57920000      -2.50040000       1.63990000
H       -3.24580000      -1.98880000      -0.23100000
H       -1.34550000      -3.07310000      -1.98370000
H       -3.25970000      -6.21210000       0.08570000
