20
Properties=species:S:1:pos:R:3 gdb_47032=T pbc="F F F"
N       -0.14210000       1.23920000       0.63230000
C       -0.05160000       0.08080000       0.12650000
C       -1.25510000      -0.82520000       0.02690000
C       -1.25540000      -1.61710000      -1.28580000
C       -0.00100000      -2.48790000      -1.31350000
C        0.59490000      -2.77800000      -2.72050000
C        1.55850000      -1.57110000      -2.53350000
C        1.26350000      -1.63840000      -1.01630000
O        1.14420000      -0.39190000      -0.33400000
H        0.77380000       1.69400000       0.62400000
H       -1.23680000      -1.52750000       0.87180000
H       -2.14020000      -0.19930000       0.14620000
H       -2.15720000      -2.23080000      -1.37350000
H       -1.26300000      -0.92080000      -2.13350000
H       -0.13860000      -3.35150000      -0.65620000
H        1.12520000      -3.73260000      -2.75730000
H       -0.09980000      -2.73400000      -3.56240000
H        2.59700000      -1.68600000      -2.84920000
H        1.15850000      -0.65070000      -2.96580000
H        2.02730000      -2.21220000      -0.48290000
