19
Properties=species:S:1:pos:R:3 gdb_85535=T pbc="F F F"
C       -0.31110000       1.41720000       0.00780000
C       -0.00560000      -0.06570000       0.16710000
O        0.49720000      -0.50510000      -1.11470000
C        1.11170000      -1.70500000      -1.27590000
O        1.39120000      -2.07310000      -2.38380000
C        1.42270000      -2.50720000      -0.02130000
C        1.71960000      -1.65750000       1.19800000
C        2.44970000      -0.34220000       1.04800000
C        0.96150000      -0.36600000       1.29490000
H        0.60980000       1.97760000      -0.17600000
H       -0.99130000       1.57810000      -0.83230000
H       -0.78020000       1.80490000       0.91700000
H       -0.94390000      -0.60860000       0.35510000
H        0.55080000      -3.14560000       0.18010000
H        2.24720000      -3.17670000      -0.27850000
H        1.89470000      -2.21700000       2.11150000
H        3.09020000      -0.02400000       1.86230000
H        2.80530000      -0.05600000       0.06390000
H        0.60350000      -0.04650000       2.26890000
