22
Properties=species:S:1:pos:R:3 gdb_119061=T pbc="F F F"
C        0.17980000       0.99410000      -0.57400000
N        0.72460000      -0.34520000      -0.37990000
C        2.14120000      -0.46780000      -0.05990000
C        1.09990000      -0.80260000       0.96270000
C        0.95720000       0.12950000       2.16160000
O       -0.38340000       0.42530000       2.49630000
C        0.77750000      -2.27930000       1.19090000
C       -0.70610000      -2.62510000       1.26610000
O       -1.23350000      -2.20930000       2.53460000
H        0.73040000       1.78960000      -0.05120000
H        0.19650000       1.22200000      -1.64490000
H       -0.85370000       1.01750000      -0.22120000
H        2.68750000      -1.25700000      -0.57250000
H        2.70990000       0.45050000       0.08690000
H        1.50020000      -0.31700000       3.01190000
H        1.43820000       1.08890000       1.95180000
H       -0.81780000      -0.42240000       2.68830000
H        1.19050000      -2.85040000       0.35330000
H        1.27300000      -2.63920000       2.10150000
H       -1.23470000      -2.13310000       0.43910000
H       -0.83370000      -3.71110000       1.16040000
H       -2.18420000      -2.35810000       2.53120000
