15
Properties=species:S:1:pos:R:3 gdb_72985=T pbc="F F F"
N       -0.09770000       1.50770000      -0.00360000
C       -0.04580000       0.10040000      -0.02420000
C        0.63480000      -0.85690000      -1.01360000
O       -0.45300000      -1.82490000      -0.86310000
C       -1.16360000      -0.92800000      -0.01630000
C       -0.33000000      -0.73720000       1.23760000
O        0.53840000      -1.73900000       1.65700000
C       -0.96250000      -0.02860000       2.32470000
N       -1.46650000       0.52290000       3.20680000
H        0.72990000       1.92420000       0.40780000
H       -0.25290000       1.90760000      -0.92190000
H        0.65420000      -0.47320000      -2.03880000
H        1.60610000      -1.27620000      -0.73610000
H       -2.24470000      -0.88970000      -0.07120000
H        0.35340000      -2.50600000       1.09630000
