17
Properties=species:S:1:pos:R:3 gdb_46694=T pbc="F F F"
O        0.08400000      -0.04180000       0.04080000
C       -0.00370000       1.16350000       0.01700000
C       -1.33460000       1.91680000       0.01550000
N       -1.39820000       3.06770000      -0.91320000
C       -0.14130000       3.69320000      -1.26490000
C        0.91350000       4.15530000      -0.30800000
N        0.95560000       3.28590000       0.88720000
C        1.19680000       2.09290000      -0.00840000
C        1.19960000       2.99460000      -1.27120000
H       -2.13400000       1.21290000      -0.22380000
H       -1.49340000       2.27400000       1.04010000
H       -1.81940000       2.74560000      -1.77780000
H       -0.27000000       4.38530000      -2.09320000
H        1.27840000       5.17600000      -0.27750000
H        1.80930000       3.46730000       1.40610000
H        2.12190000       1.55190000       0.19190000
H        1.85140000       2.88190000      -2.12940000
