17
Properties=species:S:1:pos:R:3 gdb_11515=T pbc="F F F"
N        0.15560000       1.55890000       0.01100000
C        0.08220000       0.09830000      -0.02290000
C        0.72150000      -0.59390000      -1.25150000
N        0.07430000      -0.12000000      -2.46590000
C        0.78720000       0.88330000      -3.25820000
C        0.69070000      -0.52420000      -3.72580000
C        0.67760000      -0.45210000       1.20490000
N        1.17520000      -0.90580000       2.14350000
H        1.12420000       1.86440000      -0.02490000
H       -0.30750000       1.92290000      -0.81560000
H       -0.98160000      -0.16850000      -0.02210000
H        1.81220000      -0.41900000      -1.24760000
H        0.56170000      -1.67500000      -1.17020000
H        0.17160000       1.65700000      -3.70790000
H        1.75740000       1.22240000      -2.89880000
H        1.59620000      -1.12670000      -3.67900000
H        0.00160000      -0.79840000      -4.51900000
