21
Properties=species:S:1:pos:R:3 gdb_62055=T pbc="F F F"
O        0.11910000       1.50410000       0.06980000
C        0.03300000       0.08150000      -0.00620000
C        0.64010000      -0.46820000      -1.31130000
C       -0.02240000       0.11620000      -2.56430000
C        0.59930000      -0.39200000      -3.84760000
C        0.15800000      -1.70520000      -4.44580000
C       -0.18870000      -0.40530000      -5.13150000
C        0.63600000      -0.55440000       1.16930000
C        1.17590000      -1.05670000       2.11900000
H        1.03660000       1.72610000       0.26470000
H       -1.04480000      -0.12660000      -0.00860000
H        1.71600000      -0.24690000      -1.31250000
H        0.54960000      -1.56060000      -1.30700000
H       -1.09260000      -0.13360000      -2.55830000
H        0.03640000       1.20940000      -2.52050000
H        1.65820000      -0.16390000      -3.94970000
H        0.90190000      -2.34850000      -4.90270000
H       -0.64460000      -2.24160000      -3.94880000
H       -1.22140000      -0.07360000      -5.09460000
H        0.32170000      -0.15760000      -6.05570000
H        1.63320000      -1.50320000       2.96740000
