17
Properties=species:S:1:pos:R:3 gdb_17745=T pbc="F F F"
C       -0.06340000       1.47140000       0.02370000
C        0.01600000      -0.02760000      -0.04010000
C        0.23440000      -0.81930000      -1.34760000
C       -0.50410000      -1.92480000      -0.57900000
C        0.28470000      -2.24860000       0.69800000
C       -0.63870000      -1.39600000       1.51460000
C        0.68170000      -0.81730000       1.10500000
N       -1.26860000      -0.85970000       0.23750000
H        0.92060000       1.91970000      -0.15800000
H       -0.76090000       1.85580000      -0.72660000
H       -0.40740000       1.79990000       1.01010000
H       -0.37790000      -0.41700000      -2.16010000
H        1.25580000      -1.00400000      -1.68990000
H       -1.08110000      -2.70790000      -1.07070000
H        0.85950000      -3.12270000       0.97500000
H       -1.13700000      -1.52950000       2.46640000
H        1.56110000      -0.59160000       1.69500000
