20
Properties=species:S:1:pos:R:3 gdb_103326=T pbc="F F F"
C        0.29470000       1.34310000      -0.75230000
C       -0.04110000       0.03170000      -0.04320000
C       -1.44320000      -0.46210000      -0.48700000
O       -2.42920000      -0.38710000       0.52600000
C        1.13200000      -1.00280000       0.11740000
N        1.79340000       0.00420000       1.03690000
C        0.33740000      -0.05340000       1.47980000
C        0.44270000      -1.59480000       1.39370000
O       -0.74130000      -2.36340000       1.37700000
H        1.26530000       1.73660000      -0.45470000
H        0.29340000       1.19480000      -1.83880000
H       -0.47680000       2.08910000      -0.52910000
H       -1.79640000       0.18960000      -1.29200000
H       -1.37790000      -1.47610000      -0.90330000
H       -2.25530000      -1.13970000       1.10480000
H        1.69640000      -1.52140000      -0.66140000
H        2.37650000      -0.48640000       1.72320000
H       -0.03680000       0.55460000       2.30410000
H        1.15830000      -2.02440000       2.10880000
H       -0.52400000      -3.27200000       1.14670000
