15
Properties=species:S:1:pos:R:3 gdb_75666=T pbc="F F F"
C       -0.05350000       1.64930000       0.00700000
C        0.06500000       0.13320000       0.06240000
C        1.12120000      -0.60080000      -0.78450000
O        1.42420000      -0.63130000      -1.93180000
N        1.66490000      -1.38660000       0.32720000
C        2.20320000      -0.37070000       1.27020000
C        0.73790000      -0.57430000       1.25500000
C        0.02480000      -1.19320000       2.32970000
N       -0.57580000      -1.65100000       3.20550000
H        0.89280000       2.14340000       0.24300000
H       -0.35150000       1.95830000      -0.99880000
H       -0.81060000       2.00510000       0.71160000
H       -0.90510000      -0.33570000      -0.13750000
H        2.76570000      -0.81520000       2.08390000
H        2.62180000       0.54950000       0.87130000
