21
Properties=species:S:1:pos:R:3 gdb_117788=T pbc="F F F"
C       -0.00110000       1.43920000       0.25590000
N       -0.07790000       0.00710000      -0.02540000
C       -1.42110000      -0.57080000      -0.15910000
C       -2.28070000       0.00550000      -1.30630000
C       -1.20680000      -2.09750000      -0.37500000
O       -2.40780000      -2.80180000      -0.56330000
C       -2.83250000      -3.57710000       0.54710000
C       -2.13560000      -0.36790000       1.11870000
N       -2.70880000      -0.20430000       2.10890000
H        1.05240000       1.71650000       0.35000000
H       -0.45800000       2.08860000      -0.50730000
H       -0.48690000       1.64810000       1.21340000
H        0.43520000      -0.20290000      -0.87580000
H       -1.73180000      -0.09580000      -2.24890000
H       -3.21590000      -0.55110000      -1.39070000
H       -2.51010000       1.06090000      -1.14590000
H       -0.60910000      -2.20610000      -1.29120000
H       -0.61820000      -2.49160000       0.46150000
H       -3.75770000      -4.07320000       0.24540000
H       -2.08740000      -4.34370000       0.80430000
H       -3.02990000      -2.96050000       1.43140000
