16
Properties=species:S:1:pos:R:3 gdb_71506=T pbc="F F F"
C        0.02480000       1.49660000      -0.07920000
C        0.00020000       0.00010000      -0.01900000
N        0.65230000      -0.89210000      -1.05140000
C        0.02650000      -1.84570000      -0.06940000
C        0.56000000      -0.95530000       1.07630000
O       -0.32660000      -0.99410000       2.19360000
C       -1.57460000      -1.00040000       1.60180000
O       -2.60070000      -1.02500000       2.20930000
C       -1.25280000      -0.96100000       0.12520000
H        1.05490000       1.85120000      -0.18220000
H       -0.55350000       1.86860000      -0.93120000
H       -0.40170000       1.92320000       0.83410000
H        0.09500000      -0.87920000      -1.90980000
H        0.07960000      -2.92890000      -0.17630000
H        1.60330000      -0.95030000       1.37790000
H       -2.06710000      -0.95510000      -0.59590000
