17
Properties=species:S:1:pos:R:3 gdb_45187=T pbc="F F F"
O       -0.02450000      -0.01870000       0.10650000
C        0.00200000       1.18920000       0.01280000
N       -1.11140000       1.99520000      -0.12420000
C       -0.89560000       3.39820000       0.21350000
C       -0.09510000       3.46210000       1.54210000
N        1.17850000       3.35050000       0.76250000
C        0.43680000       3.89730000      -0.45500000
C        1.15620000       2.89310000      -1.34990000
C        1.26540000       2.04620000      -0.04930000
H       -2.00050000       1.56830000       0.09640000
H       -1.81340000       3.97240000       0.07610000
H       -0.11270000       4.44550000       2.02190000
H       -0.29020000       2.68130000       2.28360000
H        0.48910000       4.97200000      -0.64370000
H        0.63760000       2.45660000      -2.20390000
H        2.12890000       3.28700000      -1.65120000
H        2.15300000       1.44760000       0.14620000
