14
Properties=species:S:1:pos:R:3 gdb_54885=T pbc="F F F"
N        0.02450000       1.33530000       0.13450000
C        0.02150000      -0.01640000       0.00670000
N        1.21040000      -0.66130000      -0.15130000
H        1.14730000      -1.66700000      -0.07860000
H        2.03060000      -0.24530000       0.26190000
C       -1.16980000      -0.71690000       0.02970000
N       -1.27730000      -2.11390000       0.02290000
C       -2.54290000      -2.32320000       0.01880000
O       -3.34680000      -1.22000000       0.02360000
C       -2.46930000      -0.11610000       0.03470000
O       -2.86140000       1.03300000       0.04780000
H        0.78280000       1.85060000      -0.28350000
H       -0.89830000       1.76080000       0.09440000
H       -3.04670000      -3.27880000       0.01470000
