18
Properties=species:S:1:pos:R:3 gdb_22811=T pbc="F F F"
C        0.08620000       1.50170000       0.07420000
C        0.03600000      -0.00040000       0.01990000
C       -0.09590000      -0.69150000      -1.12200000
C       -0.09070000      -2.19260000      -1.16270000
O        0.51420000      -2.76580000      -0.02240000
C       -0.00270000      -2.26600000       1.19310000
C        0.08960000      -0.75610000       1.27580000
N        0.15370000      -0.09530000       2.37480000
O        0.13220000      -0.94340000       3.49110000
H        1.02410000       1.84540000       0.52240000
H        0.00010000       1.92910000      -0.92790000
H       -0.71810000       1.89950000       0.70110000
H       -0.20960000      -0.17130000      -2.06950000
H       -1.12250000      -2.57410000      -1.29130000
H        0.48590000      -2.55020000      -2.02310000
H       -1.05550000      -2.57050000       1.33410000
H        0.57940000      -2.72080000       1.99580000
H        0.22390000      -0.32210000       4.22100000
