17
Properties=species:S:1:pos:R:3 gdb_81204=T pbc="F F F"
C       -0.06210000       1.55320000       0.01280000
C        0.15240000       0.05700000      -0.05380000
N        1.41810000      -0.48250000      -0.75420000
C        2.19780000      -0.13910000       0.55380000
C        0.85090000      -0.78270000       1.03200000
O       -0.01710000      -1.65120000       1.87830000
C       -0.15590000      -2.47640000       0.72500000
N       -0.94320000      -3.42310000       0.51240000
C        1.07880000      -1.84730000       0.04080000
H       -0.16120000       1.95850000      -0.99940000
H       -0.99480000       1.75920000       0.54740000
H        0.73630000       2.09920000       0.51930000
H       -0.73230000      -0.42860000      -0.47760000
H        3.10550000      -0.72660000       0.68960000
H        2.37540000       0.92760000       0.67910000
H       -1.55730000      -3.58830000       1.31240000
H        1.95930000      -2.48540000       0.09920000
