14
Properties=species:S:1:pos:R:3 gdb_34268=T pbc="F F F"
N        0.00860000      -1.10030000      -0.07450000
C       -0.02390000       0.05610000      -0.03950000
C       -0.01430000       1.48020000      -0.00100000
O       -1.08640000       2.19520000       0.60740000
C       -0.76570000       3.35540000      -0.23180000
C        0.12340000       4.25900000       0.60610000
O        1.26840000       3.43490000       0.89460000
C        1.25140000       2.36590000      -0.00020000
C        0.22910000       2.52350000      -1.07700000
H       -1.64990000       3.79600000      -0.68970000
H        0.42930000       5.16450000       0.06200000
H       -0.35120000       4.53720000       1.55020000
H        2.21470000       1.90200000      -0.17060000
H        0.33950000       2.45380000      -2.14950000
