19
Properties=species:S:1:pos:R:3 gdb_40730=T pbc="F F F"
C       -0.36640000       1.34390000      -0.20730000
C        1.06820000       1.00350000       0.11140000
C        0.03790000      -0.09060000      -0.00430000
C       -0.39350000      -0.84680000       1.21940000
O       -0.43670000      -0.00430000       2.36650000
C       -1.42600000      -0.54780000       3.20940000
C       -2.85310000      -0.15950000       2.89230000
C       -2.25990000      -1.44210000       2.35140000
O       -1.71560000      -1.35970000       1.05650000
H       -0.94810000       1.81190000       0.57720000
H       -0.61540000       1.66140000      -1.21340000
H        1.81210000       1.08660000      -0.67300000
H        1.42460000       1.24540000       1.10570000
H        0.08520000      -0.72470000      -0.88400000
H        0.29070000      -1.69080000       1.42120000
H       -1.09800000      -0.77870000       4.21680000
H       -3.58310000      -0.23900000       3.69200000
H       -3.00620000       0.64890000       2.18730000
H       -2.62610000      -2.41990000       2.64500000
