16
Properties=species:S:1:pos:R:3 gdb_97318=T pbc="F F F"
C        0.08750000       1.49410000       0.02550000
N       -0.00390000       0.04990000       0.09580000
H        0.84290000      -0.48350000       0.23520000
C       -1.13760000      -0.65190000      -0.01040000
N       -1.16290000      -1.94260000       0.05970000
C       -2.40940000      -2.56830000      -0.06550000
N       -3.52560000      -1.98610000      -0.24320000
C       -2.29750000      -4.09110000       0.03620000
O       -3.25370000      -4.81600000      -0.04570000
O       -1.04730000      -4.52420000       0.22260000
H        0.72210000       1.81110000      -0.80900000
H       -0.91190000       1.90650000      -0.12660000
H        0.49530000       1.91120000       0.95260000
H       -2.04870000      -0.06690000      -0.16110000
H       -0.50110000      -3.70950000       0.24640000
H       -4.25340000      -2.70310000      -0.29610000
