19
Properties=species:S:1:pos:R:3 gdb_126754=T pbc="F F F"
C        0.10210000       1.51120000       0.02410000
C        0.02340000      -0.01310000      -0.07720000
N        0.69380000      -0.53070000      -1.25580000
N        0.04470000      -0.83230000      -2.37030000
C        1.00490000      -1.15490000      -3.24210000
C        0.72070000      -1.57580000      -4.64540000
C        2.24490000      -1.02000000      -2.57870000
N        3.52630000      -1.18750000      -3.10020000
N        2.02830000      -0.62370000      -1.32540000
H        1.14440000       1.83800000       0.06320000
H       -0.37850000       1.98070000      -0.83880000
H       -0.40410000       1.85340000       0.93190000
H        0.48740000      -0.48240000       0.79490000
H       -1.01220000      -0.35160000      -0.14530000
H        1.27190000      -0.96000000      -5.36520000
H        1.00500000      -2.62010000      -4.82810000
H       -0.34650000      -1.47930000      -4.85500000
H        3.60910000      -1.99030000      -3.71000000
H        4.22660000      -1.22620000      -2.37090000
