21
Properties=species:S:1:pos:R:3 gdb_107871=T pbc="F F F"
C       -0.16150000       1.57060000      -0.03570000
C       -0.02930000       0.05490000      -0.01300000
C        1.19580000      -0.61700000      -0.67460000
C        2.13460000      -0.31040000       0.54440000
C        2.59840000      -1.77460000       0.65440000
C        1.10850000      -1.87290000       0.27160000
C        0.28570000      -3.10720000       0.05010000
O        0.85020000      -3.81860000      -1.04520000
C        0.72210000      -0.63000000       1.15290000
H        0.78210000       2.06520000       0.21600000
H       -0.46790000       1.92320000      -1.02700000
H       -0.91730000       1.91080000       0.68140000
H       -0.98830000      -0.41520000      -0.26570000
H        1.49220000      -0.63640000      -1.72490000
H        2.71420000       0.59920000       0.70180000
H        3.31800000      -2.12450000      -0.09170000
H        2.87320000      -2.13130000       1.65350000
H        0.29090000      -3.71940000       0.96720000
H       -0.76200000      -2.82890000      -0.15040000
H        0.35400000      -4.63440000      -1.15910000
H        0.47390000      -0.65530000       2.21710000
