21
Properties=species:S:1:pos:R:3 gdb_119107=T pbc="F F F"
C       -0.07150000       1.40850000       0.29970000
O       -0.08440000       0.00860000       0.43140000
C       -1.19330000      -0.58870000      -0.20290000
C       -1.07530000      -2.09590000      -0.10090000
C       -1.47740000      -2.73380000       1.21980000
C       -2.37420000      -2.88250000       0.02650000
C        0.00500000      -2.68890000      -0.84610000
C        0.90380000      -3.17950000      -1.48110000
C        1.99730000      -3.76820000      -2.24090000
H        0.81930000       1.77750000       0.81390000
H       -0.02760000       1.72100000      -0.75610000
H       -0.96150000       1.87310000       0.75510000
H       -2.13260000      -0.25870000       0.27440000
H       -1.23840000      -0.28600000      -1.26230000
H       -0.90860000      -3.59570000       1.54570000
H       -1.77900000      -2.06150000       2.01540000
H       -3.30220000      -2.32100000       0.00160000
H       -2.41410000      -3.84360000      -0.47130000
H        2.51780000      -4.53810000      -1.66010000
H        1.64180000      -4.23580000      -3.16630000
H        2.73840000      -3.00990000      -2.51780000
