17
Properties=species:S:1:pos:R:3 gdb_10742=T pbc="F F F"
C       -0.09050000       1.49490000      -0.13110000
C        0.01450000      -0.03240000       0.03810000
N        0.76930000      -0.32020000       1.26140000
C       -1.35800000      -0.60130000       0.08270000
N       -2.41790000      -1.06090000       0.14710000
C        0.78720000      -0.63730000      -1.13660000
C        0.59910000      -2.04330000      -1.57010000
N        0.15590000      -0.92460000      -2.42480000
H        0.91780000       1.91500000      -0.15050000
H       -0.60470000       1.74810000      -1.06090000
H       -0.64130000       1.94230000       0.70130000
H        0.30330000       0.08250000       2.06940000
H        0.82190000      -1.32320000       1.41290000
H        1.77860000      -0.19700000      -1.21320000
H        1.44530000      -2.60680000      -1.95130000
H       -0.16270000      -2.63730000      -1.07220000
H       -0.85630000      -0.83110000      -2.35460000
