17
Properties=species:S:1:pos:R:3 gdb_46849=T pbc="F F F"
N        0.01590000       0.94090000      -0.94200000
C        0.05690000      -0.09330000      -0.20330000
N       -1.09620000      -0.76130000       0.21370000
C       -1.93990000      -1.49710000      -0.72120000
C       -1.08940000      -2.22080000       0.27340000
C        0.22420000      -2.88640000      -0.08650000
C        1.34150000      -2.16090000       0.68980000
C        1.37970000      -0.69110000       0.29340000
O        2.39050000      -0.03100000       0.27570000
H        0.97130000       1.29460000      -1.04330000
H       -3.00980000      -1.40560000      -0.56030000
H       -1.62820000      -1.50280000      -1.76260000
H       -1.57740000      -2.61510000       1.16390000
H        0.20400000      -3.95150000       0.15990000
H        0.41430000      -2.81030000      -1.16350000
H        1.14130000      -2.21990000       1.76840000
H        2.33340000      -2.58780000       0.52150000
