21
Properties=species:S:1:pos:R:3 gdb_112603=T pbc="F F F"
C        0.13640000       1.37650000       0.28580000
C        0.03160000      -0.12750000       0.01750000
C       -1.39640000      -0.57650000      -0.22970000
C       -1.70520000      -2.08830000      -0.23220000
C       -2.68800000      -1.75580000       0.90470000
C       -2.52910000      -2.44540000       2.24940000
O       -2.24950000      -0.36840000       0.93830000
C       -4.15190000      -1.74070000       0.47900000
O       -4.61200000      -2.34870000      -0.45180000
H        1.16960000       1.67070000       0.49170000
H       -0.21240000       1.95750000      -0.57500000
H       -0.47660000       1.65360000       1.14810000
H        0.63140000      -0.40330000      -0.86020000
H        0.43580000      -0.69060000       0.86800000
H       -1.81570000      -0.04330000      -1.09430000
H       -2.17060000      -2.49850000      -1.12820000
H       -0.86460000      -2.71420000       0.07430000
H       -1.49410000      -2.36000000       2.59140000
H       -3.17690000      -1.98290000       3.00190000
H       -2.79090000      -3.50600000       2.17080000
H       -4.77630000      -1.06870000       1.11090000
