25
Properties=species:S:1:pos:R:3 gdb_119704=T pbc="F F F"
C       -0.00420000       1.58470000       0.09710000
C       -0.02130000       0.05520000       0.15610000
C       -1.40760000      -0.54320000      -0.13200000
C       -1.42510000      -2.04790000      -0.10570000
C       -0.84000000      -2.93220000      -1.22400000
C       -2.04710000      -3.91090000      -1.07210000
C       -2.60510000      -3.02540000       0.04770000
C       -1.60490000      -2.84470000       1.16380000
C       -0.67380000      -3.91730000       1.69060000
H        0.99360000       1.98300000       0.30660000
H       -0.30580000       1.94640000      -0.89250000
H       -0.69570000       2.01690000       0.82930000
H        0.70230000      -0.34790000      -0.56430000
H        0.31510000      -0.28220000       1.14460000
H       -2.12780000      -0.15720000       0.60240000
H       -1.75350000      -0.18820000      -1.11390000
H       -0.84380000      -2.42440000      -2.19240000
H        0.16200000      -3.34160000      -1.05880000
H       -2.68310000      -3.91810000      -1.96010000
H       -1.81870000      -4.94900000      -0.80860000
H       -3.65610000      -2.79870000       0.19270000
H       -2.01510000      -2.21980000       1.95690000
H       -0.26510000      -4.54510000       0.89480000
H        0.17350000      -3.47270000       2.22480000
H       -1.19750000      -4.57690000       2.39180000
