15
Properties=species:S:1:pos:R:3 gdb_44859=T pbc="F F F"
O        0.01310000       0.02570000       0.07200000
C       -0.01420000       1.22310000       0.02750000
C       -1.25320000       2.15220000       0.00470000
C       -0.55320000       3.52640000       0.04900000
O        0.61560000       3.28800000      -0.75340000
C        1.17610000       2.21300000      -0.00180000
C        1.21060000       2.78210000       1.43000000
O        1.36450000       4.19950000       1.47110000
C        0.04190000       3.67010000       1.45950000
H       -1.80840000       2.01270000      -0.92690000
H       -1.91970000       1.93130000       0.84300000
H       -1.10220000       4.37580000      -0.35400000
H        2.09960000       1.85080000      -0.44710000
H        1.57880000       2.20650000       2.27180000
H       -0.57810000       3.84370000       2.33320000
