14
Properties=species:S:1:pos:R:3 gdb_20777=T pbc="F F F"
C        0.11060000       1.50120000       0.02510000
C        0.06430000       0.01060000       0.06580000
N        0.06880000      -0.73400000      -1.00610000
O        0.02040000      -2.03260000      -0.56790000
N       -0.00560000      -2.09140000       0.79520000
C        0.01430000      -0.85400000       1.20830000
C        0.03540000      -0.48650000       2.66130000
O        1.17600000       0.29620000       2.98890000
H        0.87770000       1.87130000       0.71000000
H        0.31970000       1.84830000      -0.98780000
H       -0.84610000       1.92780000       0.34640000
H       -0.82910000       0.13990000       2.90430000
H       -0.03350000      -1.40060000       3.26400000
H        1.95600000      -0.25400000       2.85870000
