19
Properties=species:S:1:pos:R:3 gdb_73258=T pbc="F F F"
C        0.09220000       1.51190000      -0.06710000
C       -0.01740000      -0.00680000       0.01730000
O       -1.32310000      -0.38550000       0.55680000
C       -0.72380000      -0.86800000       1.77760000
C        0.69720000      -0.64830000       1.23880000
O        1.34670000      -1.87400000       0.99810000
C        2.13320000      -1.90200000      -0.18180000
C        1.34190000      -1.48880000      -1.39550000
C        0.30450000      -0.66350000      -1.28820000
H        1.09430000       1.81330000      -0.38970000
H       -0.63410000       1.90030000      -0.78800000
H       -0.11680000       1.96850000       0.90540000
H       -1.00350000      -0.25440000       2.64260000
H       -0.95710000      -1.91920000       1.97390000
H        1.34690000       0.03370000       1.80490000
H        3.03730000      -1.27690000      -0.06800000
H        2.47510000      -2.93700000      -0.28310000
H        1.63270000      -1.91380000      -2.35210000
H       -0.31150000      -0.39860000      -2.14380000
