20
Properties=species:S:1:pos:R:3 gdb_71658=T pbc="F F F"
C       -0.05080000       1.47340000       0.02140000
C        0.08950000      -0.03380000       0.01470000
C        0.88490000      -0.69560000      -1.13520000
C        0.43960000      -2.12120000      -0.78960000
C       -1.09150000      -1.98800000      -0.81570000
C       -1.17940000      -2.00270000       0.65980000
C        0.34410000      -2.13730000       0.81290000
C        0.74360000      -0.71930000       1.23740000
N       -1.27840000      -0.71590000      -0.07370000
H        0.92950000       1.95800000       0.08430000
H       -0.54650000       1.82090000      -0.89000000
H       -0.65120000       1.80330000       0.87450000
H        0.54290000      -0.38410000      -2.12760000
H        1.96150000      -0.51530000      -1.05560000
H        0.91410000      -2.96740000      -1.28220000
H       -1.79600000      -2.26660000      -1.59190000
H       -1.97080000      -2.29600000       1.34120000
H        0.75790000      -2.99370000       1.34150000
H        1.82180000      -0.53870000       1.28970000
H        0.28580000      -0.42730000       2.18820000
