24
Properties=species:S:1:pos:R:3 gdb_121735=T pbc="F F F"
C        0.02270000       1.31500000      -0.65940000
C       -0.09120000       0.02040000       0.15010000
C       -1.42180000      -0.70440000      -0.07140000
C       -1.54420000      -2.00290000       0.73280000
C       -2.94220000      -2.61060000       0.63390000
O       -3.94970000      -1.92330000       0.63180000
N       -2.97640000      -3.97520000       0.57690000
C       -4.21380000      -4.73390000       0.49030000
C       -4.40880000      -5.40290000      -0.87210000
H        0.97870000       1.81670000      -0.48000000
H       -0.05340000       1.11730000      -1.73440000
H       -0.77740000       2.01560000      -0.39660000
H        0.74080000      -0.64830000      -0.10990000
H        0.02480000       0.24460000       1.21910000
H       -2.26040000      -0.05610000       0.20260000
H       -1.54590000      -0.92630000      -1.13970000
H       -0.77840000      -2.72580000       0.42510000
H       -1.36250000      -1.79180000       1.79560000
H       -2.10380000      -4.47640000       0.54440000
H       -4.23340000      -5.48740000       1.28780000
H       -5.01600000      -4.01950000       0.68600000
H       -5.34560000      -5.96910000      -0.88940000
H       -4.44400000      -4.65390000      -1.66840000
H       -3.59350000      -6.10010000      -1.09590000
