18
Properties=species:S:1:pos:R:3 gdb_34425=T pbc="F F F"
C       -0.00350000      -1.15070000       0.00140000
C        0.02390000       0.05170000       0.01260000
C        0.04100000       1.49180000       0.06950000
C       -0.91350000       2.16700000       1.06010000
C       -0.64470000       3.64900000       0.69970000
C        0.38920000       3.44020000      -0.39390000
C        1.37630000       2.30130000      -0.03650000
C        1.36760000       1.96060000      -1.52960000
N       -0.11310000       2.27460000      -1.28440000
H       -0.02790000      -2.21230000      -0.01590000
H       -1.94570000       1.85970000       0.87640000
H       -0.66080000       1.91270000       2.09280000
H       -1.53400000       4.15890000       0.32020000
H       -0.24740000       4.23220000       1.53540000
H        0.74790000       4.30450000      -0.95500000
H        2.20630000       2.30540000       0.67960000
H        1.84570000       2.66380000      -2.21650000
H        1.55250000       0.92670000      -1.82770000
