20
Properties=species:S:1:pos:R:3 gdb_53512=T pbc="F F F"
C        0.09070000       1.51040000       0.00770000
C        0.05570000       0.05480000      -0.01920000
C        0.03830000      -1.14910000      -0.04140000
C       -0.00570000      -2.60650000      -0.05650000
C       -1.44390000      -3.17910000      -0.03620000
C       -2.24490000      -2.76270000      -1.27250000
C       -1.36320000      -4.71840000       0.10210000
C       -2.67230000      -5.34900000       0.25320000
N       -3.71480000      -5.83240000       0.37660000
H        0.88590000       1.87660000       0.66630000
H        0.27060000       1.92400000      -0.99070000
H       -0.85610000       1.92420000       0.37170000
H        0.51520000      -2.98470000      -0.94810000
H        0.55000000      -2.99630000       0.80710000
H       -1.94550000      -2.78940000       0.85700000
H       -1.77770000      -3.14650000      -2.18770000
H       -3.26740000      -3.14760000      -1.22860000
H       -2.28760000      -1.67370000      -1.34850000
H       -0.87120000      -5.14810000      -0.77970000
H       -0.75050000      -4.99040000       0.96960000
