18
Properties=species:S:1:pos:R:3 gdb_11589=T pbc="F F F"
C       -0.32660000       1.44400000      -0.11670000
C        0.00380000      -0.02720000       0.06520000
O        0.22520000      -0.50360000       1.15510000
C        0.03970000      -0.86960000      -1.20370000
C        0.26490000      -2.36040000      -0.94340000
C        0.31520000      -3.15300000      -2.22530000
C       -0.28440000      -4.48590000      -2.35330000
O       -0.93090000      -3.33840000      -2.90810000
H        0.34270000       1.90530000      -0.85110000
H       -1.34580000       1.55310000      -0.50510000
H       -0.24480000       1.96400000       0.83850000
H       -0.89530000      -0.71580000      -1.75820000
H        0.82750000      -0.45980000      -1.85290000
H        1.19780000      -2.50070000      -0.38630000
H       -0.53820000      -2.74480000      -0.30710000
H        1.14340000      -2.90980000      -2.89530000
H        0.11330000      -5.19530000      -3.07790000
H       -0.78230000      -4.93250000      -1.49340000
