23
Properties=species:S:1:pos:R:3 gdb_104053=T pbc="F F F"
C       -0.36510000       1.38660000       0.02280000
C        0.03860000      -0.09210000       0.04900000
C        0.83890000      -0.51230000       1.28320000
C        2.22290000       0.13830000       1.34500000
C        0.10210000      -0.42730000       2.67110000
C        0.39620000      -1.92880000       2.93570000
C       -0.69300000      -2.87970000       2.42020000
O       -0.16890000      -2.82370000       1.07190000
C        0.97400000      -2.05130000       1.49810000
H        0.50380000       2.05120000      -0.02200000
H       -0.98690000       1.60260000      -0.85150000
H       -0.94340000       1.65900000       0.91280000
H       -0.85600000      -0.72080000      -0.00590000
H        0.62600000      -0.32620000      -0.84960000
H        2.14980000       1.22310000       1.47170000
H        2.80720000      -0.24910000       2.18790000
H        2.79020000      -0.06010000       0.42830000
H        0.56660000       0.26210000       3.38030000
H       -0.96480000      -0.19070000       2.61420000
H        0.92890000      -2.19810000       3.84620000
H       -0.63860000      -3.90070000       2.82060000
H       -1.72970000      -2.52470000       2.48200000
H        1.91890000      -2.52770000       1.21590000
