18
Properties=species:S:1:pos:R:3 gdb_30212=T pbc="F F F"
C       -0.35050000       1.31650000       0.66220000
N        0.03290000       0.10800000      -0.06360000
C       -1.14930000      -0.74540000      -0.36900000
C       -1.15430000      -1.78150000       0.72280000
C       -1.89410000      -2.73860000       1.33140000
O       -1.15740000      -3.32160000       2.32590000
C        0.07110000      -2.71950000       2.33770000
C        0.11770000      -1.76910000       1.37410000
C        0.98470000      -0.72460000       0.72370000
H        0.53820000       1.92630000       0.85060000
H       -1.03220000       1.91110000       0.04640000
H       -0.84510000       1.12140000       1.63170000
H       -2.05310000      -0.13190000      -0.41710000
H       -1.02150000      -1.21310000      -1.35480000
H       -2.89460000      -3.12020000       1.21440000
H        0.75650000      -3.08470000       3.08400000
H        1.71690000      -1.18650000       0.04750000
H        1.54240000      -0.09690000       1.42410000
