17
Properties=species:S:1:pos:R:3 gdb_67282=T pbc="F F F"
O       -0.09110000       1.44360000       0.00490000
C        0.00120000       0.06750000       0.00150000
C        0.74060000      -0.85540000      -1.05080000
C        1.72230000      -1.31730000       0.04980000
C        0.67250000      -0.86530000       1.09000000
C       -0.60080000      -1.80390000       0.98120000
O       -0.40210000      -2.82270000      -0.02480000
C       -0.53680000      -1.79450000      -1.03180000
C       -1.25600000      -0.83420000      -0.04270000
H        0.79730000       1.81640000       0.03340000
H        1.09130000      -0.52280000      -2.02830000
H        2.00870000      -2.37070000       0.05400000
H        2.61450000      -0.68520000       0.08110000
H        0.96030000      -0.54200000       2.09090000
H       -1.04840000      -2.19080000       1.89680000
H       -0.92520000      -2.17280000      -1.97750000
H       -2.30030000      -0.53260000      -0.07440000
