16
Properties=species:S:1:pos:R:3 gdb_132734=T pbc="F F F"
C        0.00040000       1.52890000       0.03220000
C        0.00290000       0.02460000       0.01400000
C        0.05420000      -0.66310000      -1.20550000
N        0.15540000      -0.02400000      -2.43860000
C        0.06190000      -2.06410000      -1.12940000
F        0.10540000      -2.72340000      -2.30060000
N        0.02880000      -2.78380000      -0.04410000
C       -0.02010000      -2.11970000       1.12100000
C       -0.03540000      -0.73560000       1.18710000
H        0.85980000       1.93190000      -0.51660000
H       -0.90230000       1.93850000      -0.44110000
H        0.03620000       1.91160000       1.05430000
H       -0.31950000       0.86440000      -2.50400000
H       -0.05380000      -0.62650000      -3.22140000
H       -0.04790000      -2.72640000       2.02050000
H       -0.07440000      -0.23800000       2.15040000
