22
Properties=species:S:1:pos:R:3 gdb_70746=T pbc="F F F"
C        0.10620000       1.51570000      -0.01420000
C       -0.00860000       0.00470000       0.02320000
C       -1.32390000      -0.54830000      -0.52260000
C       -2.43350000      -0.61760000       0.54250000
C       -2.30170000      -1.79680000       1.51560000
O       -1.15990000      -1.78600000       2.35370000
C        0.06810000      -2.01150000       1.68100000
C        0.67250000      -0.73800000       1.11610000
N        1.26620000      -0.69600000      -0.23960000
H        1.05170000       1.84180000       0.42560000
H        0.07140000       1.87920000      -1.04760000
H       -0.71330000       1.98970000       0.53750000
H       -1.65130000       0.08280000      -1.35710000
H       -1.17200000      -1.54900000      -0.94720000
H       -2.46570000       0.31850000       1.11230000
H       -3.40910000      -0.71850000       0.04940000
H       -3.15910000      -1.80270000       2.19660000
H       -2.32970000      -2.74030000       0.94190000
H        0.74560000      -2.44530000       2.42420000
H       -0.06500000      -2.76150000       0.88430000
H        1.23140000      -0.15240000       1.84400000
H        1.08440000      -1.57960000      -0.71350000
