21
Properties=species:S:1:pos:R:3 gdb_90431=T pbc="F F F"
C       -0.11640000       1.62660000      -0.06280000
C        0.06750000       0.11590000       0.00610000
C        1.03040000      -0.63240000      -0.97790000
O        2.09670000       0.11950000      -1.50150000
C        1.38110000      -1.64060000       0.18650000
C        2.76540000      -1.43060000       0.82400000
C        2.18300000      -0.23800000       1.64280000
O        2.59100000       1.05300000       1.18800000
C        0.73510000      -0.62420000       1.19340000
H        0.83150000       2.16310000      -0.03440000
H       -0.64000000       1.90310000      -0.98460000
H       -0.72180000       1.97690000       0.78070000
H       -0.91770000      -0.35600000      -0.10540000
H        0.54070000      -1.09340000      -1.83960000
H        2.44650000       0.66520000      -0.78080000
H        1.01280000      -2.65800000       0.05140000
H        3.06880000      -2.26350000       1.46420000
H        3.58380000      -1.18480000       0.14140000
H        2.33540000      -0.30840000       2.72620000
H        3.51380000       1.17300000       1.43720000
H        0.09070000      -0.92540000       2.02130000
