16
Properties=species:S:1:pos:R:3 gdb_9656=T pbc="F F F"
N       -0.30640000       1.37350000      -0.32820000
C       -0.12660000      -0.02900000      -0.03200000
C       -0.29030000      -0.45520000       1.41640000
C       -1.34750000      -0.83420000       0.42260000
C       -2.70910000      -0.17590000       0.47720000
O       -3.36350000      -0.16270000      -0.77970000
C        0.86610000      -0.73380000      -0.81690000
N        1.66080000      -1.25770000      -1.47570000
H        0.49710000       1.90860000      -0.01120000
H       -0.37190000       1.51720000      -1.33180000
H        0.37770000      -1.21650000       1.80010000
H       -0.51880000       0.35070000       2.10600000
H       -1.35830000      -1.86690000       0.08850000
H       -3.35370000      -0.75650000       1.14610000
H       -2.61510000       0.83400000       0.89470000
H       -2.91360000       0.48600000      -1.32990000
