18
Properties=species:S:1:pos:R:3 gdb_83897=T pbc="F F F"
C       -0.07610000       1.54420000       0.02040000
C        0.05330000       0.04040000       0.04500000
C        1.35420000      -0.66230000      -0.20860000
O        2.51340000       0.11540000      -0.16730000
C        2.98430000       0.17510000       1.18580000
C        1.73560000       0.06590000       2.08290000
C        0.75460000      -0.71230000       1.19380000
C        0.14290000      -1.89980000       1.70840000
N       -0.35710000      -2.85750000       2.12470000
H        0.88280000       2.03410000       0.19900000
H       -0.42790000       1.86600000      -0.96490000
H       -0.79750000       1.89630000       0.76440000
H       -0.81570000      -0.49800000      -0.32420000
H        1.40800000      -1.54410000      -0.84000000
H        3.67400000      -0.65940000       1.37610000
H        3.53090000       1.11410000       1.30470000
H        1.94150000      -0.47780000       3.00680000
H        1.34110000       1.04870000       2.35370000
