18
Properties=species:S:1:pos:R:3 gdb_114927=T pbc="F F F"
C       -0.07360000       1.54220000       0.18020000
C       -0.07940000       0.01200000       0.19440000
C       -1.44090000      -0.59560000      -0.12150000
C       -1.50240000      -2.14480000      -0.03060000
N       -2.44600000      -2.43840000       1.05490000
C       -2.86940000      -1.30950000       1.46560000
O       -2.41160000      -0.16980000       0.87720000
C       -3.81210000      -1.11740000       2.51700000
C       -4.60690000      -0.94490000       3.40090000
H        0.91940000       1.93340000       0.41960000
H       -0.35720000       1.92940000      -0.80480000
H       -0.78250000       1.93780000       0.91230000
H        0.63480000      -0.37770000      -0.54270000
H        0.24720000      -0.36170000       1.17320000
H       -1.80610000      -0.22310000      -1.08490000
H       -1.85260000      -2.60980000      -0.95840000
H       -0.52350000      -2.58170000       0.20070000
H       -5.31060000      -0.80220000       4.18410000
