19
Properties=species:S:1:pos:R:3 gdb_67038=T pbc="F F F"
C        0.03060000       1.53230000       0.00140000
C        0.00400000       0.03510000       0.01640000
C        0.48110000      -1.05240000      -0.96050000
C        1.22020000      -1.79460000       0.15480000
C        0.45760000      -0.91080000       1.19080000
O        1.13120000      -0.40350000       2.30120000
C       -0.84710000      -1.59280000       1.60090000
O       -1.53380000      -1.80970000       0.36700000
C       -0.98060000      -0.90760000      -0.57340000
H        1.03440000       1.92270000       0.20760000
H       -0.27890000       1.92160000      -0.97390000
H       -0.64520000       1.94850000       0.75710000
H        0.81170000      -0.94940000      -1.98860000
H        1.09680000      -2.88060000       0.23040000
H        2.28870000      -1.55270000       0.15290000
H        1.99110000      -0.07850000       2.01610000
H       -0.68780000      -2.55890000       2.08980000
H       -1.42810000      -0.94130000       2.27130000
H       -1.68860000      -0.59700000      -1.33330000
