17
Properties=species:S:1:pos:R:3 gdb_102013=T pbc="F F F"
C       -0.27260000       0.61340000       0.77360000
C        0.59190000      -0.47860000       0.14590000
N        0.71040000      -0.34360000      -1.31470000
C        1.92820000      -0.04710000      -1.88600000
O        2.16850000      -0.07630000      -3.07280000
C       -0.37480000      -0.72910000      -2.11940000
N       -1.33130000      -1.40170000      -1.62000000
C       -0.43410000      -0.21320000      -3.55380000
O       -1.11050000      -0.78240000      -4.37100000
H        0.14010000       1.60710000       0.57480000
H       -1.29190000       0.57050000       0.38390000
H       -0.31770000       0.47140000       1.85740000
H        1.60600000      -0.45000000       0.55360000
H        0.17240000      -1.46500000       0.35560000
H        2.68360000       0.22500000      -1.12800000
H       -2.01970000      -1.57390000      -2.35670000
H        0.08470000       0.73390000      -3.76510000
