21
Properties=species:S:1:pos:R:3 gdb_118348=T pbc="F F F"
C       -0.81920000       1.33910000      -0.35000000
O       -0.11810000       0.14230000      -0.09870000
C        0.43120000      -0.42610000      -1.26850000
C        1.13950000      -1.73810000      -0.89030000
C        0.15270000      -2.62140000      -0.14460000
O       -0.41710000      -3.57350000      -0.63060000
C        1.73870000      -2.41900000      -2.14280000
C        2.63550000      -3.61180000      -1.79600000
O        0.72450000      -2.76980000      -3.07160000
H       -0.16220000       2.11030000      -0.78170000
H       -1.66180000       1.17980000      -1.03990000
H       -1.20570000       1.69850000       0.60640000
H       -0.34870000      -0.63720000      -2.01450000
H        1.15780000       0.26110000      -1.73330000
H        1.94100000      -1.48270000      -0.18420000
H       -0.04500000      -2.32910000       0.90530000
H        2.35190000      -1.66870000      -2.65900000
H        3.47570000      -3.30570000      -1.16300000
H        2.07380000      -4.39000000      -1.27100000
H        3.03650000      -4.04420000      -2.71630000
H        0.13410000      -3.37300000      -2.59750000
