20
Properties=species:S:1:pos:R:3 gdb_103340=T pbc="F F F"
C        0.04180000       1.56810000      -0.16740000
C       -0.02690000       0.06790000       0.15090000
C       -1.43550000      -0.50820000       0.06880000
O       -2.27670000       0.08080000       1.05520000
C       -2.06860000      -0.79460000      -1.34280000
N       -1.04910000      -1.91090000      -1.44760000
C       -1.62300000      -2.04860000      -0.05000000
C       -3.05280000      -1.81760000      -0.66560000
O       -4.17790000      -1.46620000       0.06120000
H        1.07490000       1.92350000      -0.12020000
H       -0.33690000       1.78180000      -1.17260000
H       -0.52760000       2.17970000       0.54460000
H        0.60740000      -0.48490000      -0.54310000
H        0.35160000      -0.11010000       1.16490000
H       -2.20320000       1.03770000       0.98070000
H       -2.24570000      -0.10060000      -2.16750000
H       -1.43340000      -2.65630000      -2.03560000
H       -1.27620000      -2.81830000       0.64230000
H       -3.34640000      -2.62380000      -1.34690000
H       -3.89440000      -0.77790000       0.68050000
