14
Properties=species:S:1:pos:R:3 gdb_20447=T pbc="F F F"
C        1.03940000       1.11820000       0.10790000
N        0.45920000       0.11210000      -0.79070000
C       -0.32710000       0.57510000       0.36520000
C       -0.59270000      -0.42860000       1.41270000
C       -0.09840000      -1.70590000       1.54620000
N       -0.67400000      -2.15410000       2.68600000
N       -1.48310000      -1.22900000       3.23290000
N       -1.43320000      -0.18150000       2.46070000
H        1.87140000       0.76600000       0.71060000
H        1.12190000       2.14710000      -0.23250000
H        0.12110000       0.54970000      -1.64290000
H       -1.15400000       1.25920000       0.19270000
H        0.56930000      -2.29390000       0.94140000
H       -0.58020000      -3.05200000       3.13300000
