19
Properties=species:S:1:pos:R:3 gdb_79206=T pbc="F F F"
C       -0.00190000       1.59050000       0.02920000
C        0.10160000       0.07290000      -0.01910000
C        0.81290000      -0.65180000      -1.15990000
C        2.30230000      -0.77450000      -0.79380000
C        2.50480000      -0.13190000       0.57340000
C        1.09260000      -0.69600000       0.93360000
C        0.72770000      -0.97700000       2.29000000
C        0.41280000      -1.20830000       3.42870000
C        1.29140000      -1.75180000      -0.24970000
H        0.95490000       2.07920000      -0.17320000
H       -0.71670000       1.94740000      -0.72050000
H       -0.35610000       1.92520000       1.01060000
H       -0.88930000      -0.37340000       0.11780000
H        0.48590000      -0.74830000      -2.18750000
H        3.04750000      -0.95910000      -1.55630000
H        3.27680000      -0.65340000       1.14430000
H        2.65540000       0.94910000       0.65500000
H        0.13730000      -1.41210000       4.43350000
H        1.20710000      -2.82760000      -0.28750000
