15
Properties=species:S:1:pos:R:3 gdb_17517=T pbc="F F F"
O       -0.10640000      -0.02800000       0.04910000
C       -0.04120000       1.17690000       0.01560000
C        1.23170000       1.94240000      -0.04390000
C        1.55430000       3.04260000       1.01830000
C        2.43510000       3.67070000      -0.05780000
C        1.69150000       2.99990000      -1.14680000
N        3.09060000       2.58930000      -0.88010000
C        2.60560000       1.30070000      -0.27880000
H       -0.96380000       1.80240000       0.02310000
H        0.68790000       3.67590000       1.22740000
H        2.00360000       2.69830000       1.95540000
H        2.93060000       4.63210000      -0.05300000
H        1.30210000       3.30730000      -2.10830000
H        3.16740000       0.94760000       0.59210000
H        2.59390000       0.53320000      -1.05460000
