17
Properties=species:S:1:pos:R:3 gdb_10099=T pbc="F F F"
C       -0.22490000       1.48170000       0.35430000
C       -0.11850000      -0.02730000       0.13110000
C        0.69700000      -0.40290000      -1.12820000
N        2.07780000       0.08010000      -1.06400000
C        2.54020000       1.08450000      -1.85750000
O        1.86360000       1.73880000      -2.62180000
C        0.67910000      -1.84860000      -1.35590000
C        0.66900000      -3.04160000      -1.50050000
H        0.76010000       1.93170000       0.50690000
H       -0.68640000       1.97930000      -0.50420000
H       -0.83240000       1.69560000       1.23850000
H        0.33740000      -0.51440000       1.00160000
H       -1.11530000      -0.46740000       0.01810000
H        0.26170000       0.11090000      -1.99290000
H        2.73960000      -0.45100000      -0.51950000
H        3.62630000       1.25010000      -1.71630000
H        0.65250000      -4.09280000      -1.65190000
