14
Properties=species:S:1:pos:R:3 gdb_23259=T pbc="F F F"
O       -0.04090000       1.31820000      -0.05590000
N        0.04490000      -0.05640000      -0.01680000
C       -1.08660000      -0.64740000       0.05140000
C       -1.21870000      -2.11800000       0.03640000
C       -1.98040000      -2.75540000       1.20380000
C       -2.70770000      -2.34320000      -0.03230000
O       -3.37130000      -1.09440000       0.02410000
C       -2.47660000      -0.05260000       0.08760000
O       -2.82800000       1.08440000       0.17190000
H        0.88540000       1.58090000      -0.11350000
H       -0.50370000      -2.71250000      -0.51580000
H       -1.80840000      -3.81480000       1.35700000
H       -2.13840000      -2.17620000       2.10700000
H       -3.19300000      -3.04460000      -0.69830000
