23
Properties=species:S:1:pos:R:3 gdb_103070=T pbc="F F F"
C       -0.05470000       1.48790000       0.12270000
C        0.04060000      -0.01520000      -0.01510000
C        0.71130000      -0.71070000      -1.20020000
C        0.04590000      -1.96190000      -1.75170000
C        1.37170000       0.12310000      -2.28570000
C        1.36680000      -0.74050000       0.16040000
O        2.52820000       0.03850000       0.28730000
C        1.45890000      -1.98300000       1.01210000
O        1.71340000      -1.52910000       2.34590000
H        0.90820000       1.96670000      -0.06590000
H       -0.79170000       1.91190000      -0.56850000
H       -0.36210000       1.75850000       1.13890000
H       -0.82280000      -0.55020000       0.37670000
H       -0.68210000      -1.68880000      -2.52490000
H        0.77840000      -2.63370000      -2.21550000
H       -0.49210000      -2.52730000      -0.98640000
H        1.94010000       0.95920000      -1.88040000
H        2.06560000      -0.49350000      -2.86890000
H        0.61760000       0.51420000      -2.97880000
H        2.69440000       0.08410000       1.23820000
H        0.53240000      -2.56900000       0.97070000
H        2.28650000      -2.61520000       0.65750000
H        2.06890000      -2.26310000       2.85430000
