15
Properties=species:S:1:pos:R:3 gdb_75129=T pbc="F F F"
N        0.20860000       1.33620000       0.55950000
C        0.07860000       0.09770000      -0.02150000
N       -0.99600000      -0.56660000       0.06350000
C       -1.24680000      -1.87480000      -0.49770000
C       -0.10800000      -2.90120000      -0.51000000
O       -0.20850000      -4.01200000      -0.08010000
O        1.08760000      -2.51060000      -1.05800000
C        1.18440000      -1.23020000      -1.63290000
O        1.25120000      -0.20520000      -0.67300000
H        1.15350000       1.64480000       0.72430000
H       -0.44820000       1.51660000       1.30160000
H       -2.03620000      -2.35120000       0.08790000
H       -1.64170000      -1.79850000      -1.52330000
H        2.13870000      -1.20860000      -2.15750000
H        0.36110000      -1.04420000      -2.33110000
