21
Properties=species:S:1:pos:R:3 gdb_120900=T pbc="F F F"
O       -0.14260000       1.44850000       0.10210000
C       -0.02030000       0.03440000       0.09750000
C       -1.41360000      -0.55650000      -0.07970000
C       -1.41940000      -2.07840000      -0.09910000
C       -1.11440000      -2.84650000       1.22950000
C       -2.26660000      -3.78590000       0.87270000
C       -2.27770000      -5.24900000       0.84170000
O       -3.05240000      -4.50860000       1.79840000
C       -2.80070000      -2.80300000      -0.16970000
H        0.73180000       1.82640000       0.23270000
H        0.63400000      -0.30690000      -0.72220000
H        0.42260000      -0.33040000       1.03860000
H       -2.05400000      -0.19100000       0.73290000
H       -1.83950000      -0.16750000      -1.01310000
H       -0.76620000      -2.44590000      -0.89840000
H       -0.12100000      -3.28210000       1.36120000
H       -1.35760000      -2.24220000       2.11040000
H       -2.85540000      -5.77270000       0.08060000
H       -1.43880000      -5.80820000       1.25510000
H       -3.60290000      -2.18410000       0.24610000
H       -3.12320000      -3.20190000      -1.13440000
