23
Properties=species:S:1:pos:R:3 gdb_85974=T pbc="F F F"
C       -0.74620000       0.78360000      -0.94800000
C        0.31450000      -0.14560000      -0.37890000
C        1.66920000      -0.27310000      -1.12990000
C        2.41950000      -0.21200000       0.24190000
C        3.63020000       0.71800000       0.30760000
C        1.09490000       0.30480000       0.88590000
C        2.83160000      -1.59450000       0.70680000
C        2.79680000      -2.03330000       2.10670000
O        1.82010000      -2.49450000       1.16780000
H       -0.33910000       1.78630000      -1.12550000
H       -1.13480000       0.40940000      -1.90200000
H       -1.59490000       0.88650000      -0.26220000
H       -0.10680000      -1.13980000      -0.20690000
H        1.82490000      -1.16800000      -1.73980000
H        1.88370000       0.60770000      -1.74470000
H        3.37780000       1.71070000      -0.07820000
H        3.98680000       0.83620000       1.33720000
H        4.46390000       0.33170000      -0.29140000
H        1.11040000       1.39420000       0.99560000
H        0.78800000      -0.13890000       1.83550000
H        3.57130000      -2.07230000       0.05860000
H        3.49990000      -2.78800000       2.45620000
H        2.42100000      -1.35970000       2.87540000
