13
Properties=species:S:1:pos:R:3 gdb_4000=T pbc="F F F"
O       -0.28500000       1.71900000       0.05260000
N        0.10150000       0.48960000       0.55510000
C       -0.80150000      -0.41580000       0.40200000
C       -0.46230000      -1.80270000       0.89250000
C       -0.23050000      -2.78000000      -0.25490000
O       -0.68800000      -3.88950000      -0.30120000
C       -2.06650000      -0.20610000      -0.21560000
C       -3.14900000      -0.09030000      -0.72930000
H        0.47590000       2.27610000       0.25370000
H        0.47360000      -1.73440000       1.46020000
H       -1.24690000      -2.20600000       1.53790000
H        0.43040000      -2.38570000      -1.05930000
H       -4.10080000       0.02650000      -1.18710000
