18
Properties=species:S:1:pos:R:3 gdb_30646=T pbc="F F F"
C       -0.34560000       1.34250000       0.06650000
C        0.07470000      -0.13560000      -0.04580000
C        0.88490000      -0.41300000      -1.32560000
O        0.14000000      -0.12600000      -2.49860000
C        0.84970000      -0.56970000       1.15590000
N        2.10940000      -0.86310000       1.24900000
C        2.30090000      -1.18320000       2.58870000
C        1.12510000      -1.06110000       3.24300000
O        0.17950000      -0.66760000       2.33670000
H        0.53260000       1.99740000       0.09080000
H       -0.96980000       1.62140000      -0.78740000
H       -0.92470000       1.51830000       0.97640000
H       -0.83880000      -0.74220000      -0.09400000
H        1.83020000       0.14470000      -1.29390000
H        1.14070000      -1.47470000      -1.37220000
H        0.16110000       0.82390000      -2.64350000
H        3.26540000      -1.47540000       2.97200000
H        0.79310000      -1.20170000       4.25690000
