17
Properties=species:S:1:pos:R:3 gdb_33171=T pbc="F F F"
O        0.08820000       1.44160000      -0.14880000
C        0.07640000       0.02730000      -0.12070000
C       -1.35230000      -0.51930000       0.02460000
N       -1.39790000      -1.96950000       0.00390000
C       -1.53800000      -2.80480000      -1.10460000
C       -1.46710000      -4.07640000      -0.61960000
N       -1.27920000      -4.07060000       0.75400000
C       -1.24140000      -2.80350000       1.06520000
O       -1.07020000      -2.28070000       2.29570000
H       -0.10180000       1.76100000       0.73910000
H        0.50020000      -0.30630000      -1.07310000
H        0.70730000      -0.37880000       0.68290000
H       -1.78560000      -0.17640000       0.96960000
H       -1.97500000      -0.13380000      -0.78710000
H       -1.68300000      -2.40090000      -2.09260000
H       -1.54270000      -5.00290000      -1.16720000
H       -1.00700000      -3.03310000       2.89740000
