21
Properties=species:S:1:pos:R:3 gdb_77002=T pbc="F F F"
C        0.14880000       1.54740000      -0.16480000
C       -0.00680000       0.04590000      -0.01780000
C       -1.18240000      -0.53520000      -0.78240000
C        1.23860000      -0.80460000       0.07810000
O        2.47530000      -0.15340000       0.06690000
C        0.34990000      -0.64710000       1.29340000
C        0.88110000       0.09790000       2.51470000
C        2.01900000      -0.59320000       3.12230000
C        2.96530000      -1.18230000       3.57580000
H        1.11780000       1.89320000       0.19730000
H        0.08360000       1.82560000      -1.22260000
H       -0.64490000       2.08600000       0.36610000
H       -1.10270000      -0.30950000      -1.85220000
H       -1.23740000      -1.62310000      -0.67410000
H       -2.13060000      -0.11780000      -0.42300000
H        1.23170000      -1.76640000      -0.43610000
H        2.99470000      -0.50350000       0.80170000
H       -0.25480000      -1.51290000       1.54970000
H        1.18740000       1.11370000       2.24910000
H        0.08120000       0.20670000       3.25700000
H        3.79040000      -1.69520000       4.00460000
