21
Properties=species:S:1:pos:R:3 gdb_89088=T pbc="F F F"
C        0.32690000       1.44550000      -0.36940000
C        0.03640000       0.02740000       0.05120000
O        1.15370000      -0.83960000       0.28040000
C        0.29530000      -0.53500000       1.38820000
C        0.90640000       0.21110000       2.54980000
C        1.83280000      -0.68920000       3.37830000
C        2.46600000       0.05850000       4.56830000
C        3.34320000      -0.78510000       5.37070000
C        4.06060000      -1.50170000       6.01630000
H        1.12700000       1.89350000       0.22270000
H        0.63280000       1.46880000      -1.42060000
H       -0.57190000       2.06390000      -0.26980000
H       -0.76460000      -0.44750000      -0.52080000
H       -0.33180000      -1.37900000       1.68930000
H        1.46790000       1.07800000       2.18750000
H        0.09640000       0.59630000       3.18480000
H        1.27570000      -1.55460000       3.75580000
H        2.62470000      -1.08410000       2.73370000
H        3.03190000       0.92300000       4.19620000
H        1.67220000       0.47000000       5.20620000
H        4.69740000      -2.12600000       6.59220000
