23
Properties=species:S:1:pos:R:3 gdb_89518=T pbc="F F F"
C        0.29790000       1.65390000      -0.13490000
C        0.04230000       0.15790000      -0.01110000
C        0.73130000      -0.76890000      -1.05320000
C        1.30370000      -1.66070000       0.09150000
C        0.79810000      -3.09350000       0.13390000
C        2.82150000      -1.52230000       0.26870000
O        3.03520000      -0.22420000       0.80900000
C        1.99460000      -0.02770000       1.76350000
C        0.73410000      -0.63590000       1.14400000
H        1.37020000       1.86690000      -0.19320000
H       -0.16900000       2.04980000      -1.04370000
H       -0.11410000       2.20800000       0.71640000
H       -1.03720000      -0.02260000       0.01480000
H        0.06070000      -1.28120000      -1.74860000
H        1.50910000      -0.26190000      -1.63250000
H        1.20020000      -3.68070000      -0.70070000
H        1.09000000      -3.59380000       1.06440000
H       -0.29400000      -3.13070000       0.06220000
H        3.19910000      -2.29510000       0.96090000
H        3.38250000      -1.59180000      -0.66830000
H        2.23750000      -0.54690000       2.70560000
H        1.93150000       1.04360000       1.97110000
H        0.05650000      -1.03150000       1.90450000
