19
Properties=species:S:1:pos:R:3 gdb_68014=T pbc="F F F"
C       -0.02180000       1.50990000       0.00160000
C        0.02560000       0.00040000       0.02670000
C        0.99250000      -0.80930000      -0.89490000
C        0.74050000      -1.93980000       0.16150000
O        1.51650000      -3.06570000       0.29620000
C        0.66170000      -0.78450000       1.21810000
C       -0.73650000      -2.18480000      -0.06710000
O       -1.25810000      -3.26930000      -0.13490000
C       -1.30710000      -0.76810000      -0.17270000
H        0.97440000       1.93800000       0.15240000
H       -0.40330000       1.87790000      -0.95750000
H       -0.67670000       1.89840000       0.78960000
H        0.70090000      -0.98960000      -1.93390000
H        2.02140000      -0.44580000      -0.84270000
H        0.91120000      -3.81960000       0.21020000
H        1.65860000      -0.41860000       1.47440000
H        0.06590000      -0.94190000       2.12210000
H       -2.05100000      -0.57210000       0.60670000
H       -1.77690000      -0.59260000      -1.14630000
