19
Properties=species:S:1:pos:R:3 gdb_15381=T pbc="F F F"
C        0.09420000       1.52190000       0.11060000
C       -0.03050000      -0.00140000       0.19320000
C       -1.36820000      -0.52120000      -0.34900000
C       -1.48300000      -2.02310000      -0.24900000
N       -1.84480000      -2.57200000       1.06200000
C       -2.79200000      -2.73180000      -0.07050000
C       -4.04960000      -2.04010000       0.00490000
C       -5.11310000      -1.47970000       0.03330000
H        1.05470000       1.86600000       0.50700000
H        0.01680000       1.87160000      -0.92510000
H       -0.69890000       2.01370000       0.68450000
H        0.79500000      -0.46790000      -0.36140000
H        0.07420000      -0.32820000       1.23470000
H       -2.19660000      -0.06700000       0.20430000
H       -1.48750000      -0.22390000      -1.39970000
H       -0.74380000      -2.57720000      -0.82890000
H       -1.37280000      -3.45690000       1.22920000
H       -2.85740000      -3.72070000      -0.52050000
H       -6.05000000      -0.98140000       0.07070000
