19
Properties=species:S:1:pos:R:3 gdb_61939=T pbc="F F F"
C        0.25600000       1.04010000      -0.75600000
C       -0.19170000      -0.24650000      -0.05860000
C        0.81700000      -0.60560000       1.05610000
C        0.48290000      -1.85430000       1.73800000
N        0.18770000      -2.84030000       2.26420000
N       -1.51030000      -0.08370000       0.55960000
C       -2.62690000       0.13790000      -0.36570000
C       -2.79960000      -0.88540000      -1.40570000
C       -2.90610000      -1.74480000      -2.24040000
H        1.27850000       0.93590000      -1.13150000
H       -0.38120000       1.26910000      -1.61370000
H        0.21930000       1.88680000      -0.06280000
H       -0.18310000      -1.06520000      -0.79700000
H        1.82100000      -0.69780000       0.62970000
H        0.84130000       0.20170000       1.79670000
H       -1.71590000      -0.91600000       1.10570000
H       -3.54030000       0.20150000       0.23630000
H       -2.51110000       1.12010000      -0.83740000
H       -3.01510000      -2.50210000      -2.97700000
