16
Properties=species:S:1:pos:R:3 gdb_6123=T pbc="F F F"
C       -0.66150000       1.51340000       0.17550000
C       -0.00020000       0.16300000      -0.01410000
O       -0.93000000      -0.91670000       0.01640000
C        0.94180000      -0.08130000      -1.22750000
C        1.92800000      -0.89370000      -0.30450000
O        3.31130000      -0.78380000      -0.42900000
C        1.25010000      -0.15940000       0.85360000
O        1.69250000       0.29430000       1.87370000
H        0.06940000       2.32470000       0.11370000
H       -1.42850000       1.66910000      -0.58880000
H       -1.13600000       1.57350000       1.16170000
H       -1.38630000      -0.88990000       0.86540000
H        0.49420000      -0.63320000      -2.05380000
H        1.39970000       0.84510000      -1.58140000
H        1.64350000      -1.95080000      -0.33130000
H        3.60670000      -0.10270000       0.18770000
