23
Properties=species:S:1:pos:R:3 gdb_79137=T pbc="F F F"
C       -0.15420000       1.57810000      -0.04430000
C        0.03770000       0.06330000      -0.05770000
C        0.62850000      -0.64110000      -1.28110000
C        2.15040000      -0.70460000      -1.23870000
C        2.94080000       0.26970000      -0.36590000
C        2.43600000      -0.03450000       1.07320000
C        2.46360000       1.14140000       2.05100000
C        1.07830000      -0.72620000       0.83270000
C        1.33770000      -1.64730000      -0.39340000
H        0.75180000       2.12730000      -0.30920000
H       -0.92470000       1.85560000      -0.77380000
H       -0.49270000       1.93220000       0.93580000
H       -0.93750000      -0.39780000       0.14180000
H        0.10170000      -0.82380000      -2.21220000
H        2.60630000      -1.09120000      -2.14410000
H        4.01800000       0.09320000      -0.45720000
H        2.77160000       1.31540000      -0.64560000
H        3.09040000      -0.81680000       1.48430000
H        1.85860000       1.98340000       1.70650000
H        2.08890000       0.84240000       3.03630000
H        3.48780000       1.50600000       2.18730000
H        0.65680000      -1.17480000       1.73410000
H        1.35740000      -2.72830000      -0.42870000
