23
Properties=species:S:1:pos:R:3 gdb_99256=T pbc="F F F"
C       -0.09530000       1.55820000       0.07440000
C       -0.02050000       0.02590000       0.03320000
C        0.92360000      -0.49760000       1.12550000
C       -1.43260000      -0.57670000       0.13120000
C       -1.49450000      -2.09200000      -0.07840000
C       -2.90370000      -2.63440000      -0.20800000
O       -3.87040000      -1.93690000      -0.43570000
C       -3.10490000      -4.13820000      -0.05620000
O       -4.42780000      -4.50410000      -0.30700000
H        0.89690000       2.00690000      -0.03950000
H       -0.73530000       1.94790000      -0.72390000
H       -0.50790000       1.90410000       1.02970000
H        0.39820000      -0.26370000      -0.94240000
H        0.53390000      -0.26100000       2.12320000
H        1.06330000      -1.58180000       1.07060000
H        1.91300000      -0.03670000       1.04030000
H       -1.86740000      -0.32960000       1.10880000
H       -2.08340000      -0.10460000      -0.61180000
H       -0.96850000      -2.37060000      -1.00480000
H       -0.98230000      -2.64380000       0.71890000
H       -2.41080000      -4.65860000      -0.73620000
H       -2.79390000      -4.41390000       0.96700000
H       -4.89340000      -3.66410000      -0.45150000
