20
Properties=species:S:1:pos:R:3 gdb_8679=T pbc="F F F"
C        0.12470000       1.55440000       0.05190000
C       -0.01240000       0.03110000       0.03460000
C       -1.47440000      -0.49920000      -0.03930000
N       -2.23370000      -0.02810000      -1.20950000
C       -1.45580000      -2.05050000      -0.05660000
C       -2.83310000      -2.71310000      -0.01450000
C       -2.19420000      -0.03790000       1.16680000
N       -2.72280000       0.33260000       2.12540000
H        1.17790000       1.84120000       0.11840000
H       -0.27910000       2.00910000      -0.85860000
H       -0.39620000       1.99060000       0.90980000
H        0.51820000      -0.38450000      -0.83160000
H        0.46580000      -0.39100000       0.92610000
H       -2.31790000       0.98340000      -1.19700000
H       -1.71940000      -0.27310000      -2.05190000
H       -0.92350000      -2.34500000      -0.97070000
H       -0.84250000      -2.39460000       0.78300000
H       -2.73260000      -3.80030000      -0.08250000
H       -3.35330000      -2.48130000       0.91970000
H       -3.45680000      -2.36750000      -0.84160000
