23
Properties=species:S:1:pos:R:3 gdb_111543=T pbc="F F F"
C        0.00510000       1.56560000      -0.21240000
C        0.03490000       0.06220000       0.08560000
C       -1.34680000      -0.58450000       0.02280000
C       -2.13960000      -0.69680000      -1.31840000
C       -1.22350000      -1.51370000      -2.27020000
C       -1.43480000      -2.67310000      -1.30040000
C       -2.72370000      -2.06810000      -0.78600000
C       -1.52480000      -2.10400000       0.13120000
C       -1.29710000      -2.96110000       1.34160000
H        1.00270000       2.00920000      -0.13580000
H       -0.36900000       1.76230000      -1.22310000
H       -0.64960000       2.09480000       0.48930000
H        0.72000000      -0.43900000      -0.60750000
H        0.45160000      -0.10260000       1.08840000
H       -2.00230000      -0.10980000       0.76610000
H       -2.71990000       0.14470000      -1.69200000
H       -1.72400000      -1.70760000      -3.22360000
H       -0.20990000      -1.14510000      -2.46500000
H       -1.21650000      -3.72280000      -1.45590000
H       -3.72400000      -2.46520000      -0.68760000
H       -1.66930000      -3.97910000       1.18200000
H       -0.23130000      -3.03650000       1.58810000
H       -1.81320000      -2.55420000       2.21920000
