22
Properties=species:S:1:pos:R:3 gdb_105389=T pbc="F F F"
C       -0.81680000       1.42770000       0.47750000
C       -0.05800000       0.18350000       0.00210000
C        0.83320000      -0.42400000       1.07590000
C        0.24660000      -1.33150000       2.13430000
C        1.17920000      -1.89650000       1.08750000
C        0.71250000      -2.87040000       0.02980000
N        1.88560000       0.45240000       1.53920000
C        3.00880000       0.71220000       0.81460000
O        3.29230000       0.19910000      -0.24670000
H       -0.12720000       2.21570000       0.79700000
H       -1.43560000       1.83830000      -0.32580000
H       -1.47460000       1.19410000       1.32210000
H       -0.77530000      -0.56910000      -0.33890000
H        0.56980000       0.43190000      -0.86080000
H        0.60440000      -1.23800000       3.15450000
H       -0.81120000      -1.56170000       2.05040000
H        2.18750000      -2.08920000       1.44070000
H       -0.33360000      -2.71430000      -0.24830000
H        1.32080000      -2.78230000      -0.87620000
H        0.80020000      -3.89900000       0.39600000
H        1.72100000       1.01080000       2.36290000
H        3.65930000       1.45490000       1.32150000
