18
Properties=species:S:1:pos:R:3 gdb_77661=T pbc="F F F"
C       -0.01610000       1.55690000       0.00660000
C        0.11600000       0.04790000       0.01260000
C        1.36040000      -0.72190000      -0.25350000
O        1.49140000      -1.70650000      -1.20100000
C        2.59390000      -0.14140000       0.43210000
N        1.85340000       0.02810000       1.72310000
C        0.70680000      -0.71230000       1.19520000
C        0.06640000      -1.79410000       1.92280000
O        0.43390000      -2.17520000       3.01560000
H        0.80440000       2.01680000       0.56060000
H       -0.01770000       1.94730000      -1.01640000
H       -0.95250000       1.85870000       0.48590000
H       -0.75150000      -0.48620000      -0.38160000
H        0.81560000      -1.58850000      -1.87660000
H        3.38200000      -0.89830000       0.48790000
H        3.00770000       0.78570000       0.01930000
H        2.27280000      -0.50450000       2.47950000
H       -0.78260000      -2.27690000       1.39020000
