21
Properties=species:S:1:pos:R:3 gdb_63701=T pbc="F F F"
C        0.24560000       1.57970000       0.01610000
C        0.02950000       0.07790000      -0.00410000
O       -1.34670000      -0.26860000      -0.10230000
C        0.91100000      -0.78270000      -0.97630000
C        1.32740000      -1.71260000       0.20580000
C        1.08030000      -3.19660000       0.07580000
C        2.59480000      -1.21100000       0.92290000
O        1.83690000      -0.24700000       1.69250000
C        0.58620000      -0.74800000       1.18250000
H        1.28510000       1.81470000       0.25590000
H        0.00720000       2.02000000      -0.96030000
H       -0.39910000       2.04400000       0.76880000
H       -1.67700000       0.07030000      -0.94170000
H        0.31340000      -1.28110000      -1.74390000
H        1.73970000      -0.25370000      -1.45590000
H        1.74320000      -3.64200000      -0.67630000
H        1.25490000      -3.71600000       1.02440000
H        0.04870000      -3.39500000      -0.23250000
H        3.06650000      -1.95510000       1.57940000
H        3.36770000      -0.73830000       0.30360000
H       -0.12280000      -1.03230000       1.96520000
