16
Properties=species:S:1:pos:R:3 gdb_11878=T pbc="F F F"
O        0.01150000      -0.03430000       0.10690000
C       -0.03360000       1.17530000       0.11090000
C       -1.29000000       2.05750000       0.09350000
C       -0.77100000       3.45780000       0.37930000
C       -1.60000000       4.67820000       0.30230000
N       -1.13530000       4.17350000       1.61100000
C        0.72230000       3.44040000       0.03760000
N        1.03940000       2.02490000       0.11230000
H       -1.74730000       1.97670000      -0.89970000
H       -2.02180000       1.69770000       0.82120000
H       -1.15810000       5.62330000      -0.00420000
H       -2.64870000       4.56600000       0.03790000
H       -1.89550000       3.69040000       2.08450000
H        0.91370000       3.84710000      -0.96610000
H        1.28580000       4.03020000       0.76630000
H        1.97420000       1.65790000       0.03110000
