19
Properties=species:S:1:pos:R:3 gdb_114142=T pbc="F F F"
C       -0.09940000       1.64020000      -0.18760000
C        0.03180000       0.11760000      -0.07470000
C       -1.30720000      -0.56880000       0.14130000
C       -1.37590000      -2.09030000       0.45190000
C       -2.13420000      -1.70340000       1.72590000
C       -1.33330000      -0.76430000       2.54710000
N       -2.07140000      -0.20760000       1.40760000
C       -3.31850000      -2.35100000       2.20270000
N       -4.26070000      -2.90870000       2.57720000
H        0.87750000       2.10950000      -0.33460000
H       -0.73680000       1.91880000      -1.03350000
H       -0.54770000       2.06270000       0.71640000
H        0.47170000      -0.29320000      -0.99280000
H        0.73060000      -0.13960000       0.73060000
H       -1.97550000      -0.32030000      -0.68800000
H       -1.97840000      -2.65100000      -0.26260000
H       -0.43290000      -2.61850000       0.61790000
H       -1.74920000      -0.45760000       3.50110000
H       -0.24970000      -0.84510000       2.52370000
