16
Properties=species:S:1:pos:R:3 gdb_125226=T pbc="F F F"
C        0.07550000       1.46920000      -0.00530000
C       -0.08870000      -0.00850000       0.00500000
C       -1.15230000      -0.83980000      -0.14480000
C       -0.58780000      -2.13810000      -0.02270000
N        0.70880000      -2.08610000       0.18420000
O        1.03220000      -0.74070000       0.20320000
C       -1.28960000      -3.44060000      -0.09180000
N       -0.45660000      -4.53300000      -0.05210000
N       -2.56490000      -3.42160000      -0.21240000
H        0.76670000       1.78170000      -0.79480000
H       -0.88880000       1.95080000      -0.17610000
H        0.48010000       1.82590000       0.94750000
H       -2.18620000      -0.59730000      -0.31510000
H        0.49270000      -4.37990000       0.25280000
H       -0.86100000      -5.42860000       0.16630000
H       -2.94690000      -4.36860000      -0.25060000
