17
Properties=species:S:1:pos:R:3 gdb_56509=T pbc="F F F"
C       -0.07280000       1.57220000       0.04820000
C       -0.01200000       0.03360000      -0.00100000
C       -1.36150000      -0.53110000       0.08740000
N       -2.42930000      -0.96340000       0.17410000
C        0.71320000      -0.51240000      -1.28280000
C        0.71910000      -2.04420000      -1.32680000
O        0.07190000      -0.08080000      -2.46640000
C        2.11090000      -0.01420000      -1.24940000
N        3.18970000       0.39980000      -1.22900000
H        0.93500000       1.99190000      -0.00450000
H       -0.67380000       1.96660000      -0.77570000
H       -0.53640000       1.90210000       0.98000000
H        0.55460000      -0.32640000       0.86620000
H       -0.31090000      -2.40160000      -1.38580000
H        1.26330000      -2.38170000      -2.21040000
H        1.19520000      -2.45810000      -0.43490000
H        0.18930000       0.87030000      -2.56860000
