23
Properties=species:S:1:pos:R:3 gdb_116164=T pbc="F F F"
C       -0.08770000       1.55300000       0.08620000
C        0.01390000       0.02630000      -0.00870000
C        0.74190000      -0.49430000      -1.25800000
C        2.22780000      -0.10620000      -1.27730000
O        2.90320000      -0.61330000      -2.41770000
C        2.86850000      -2.02560000      -2.47380000
C        1.42920000      -2.55020000      -2.56290000
O        1.39390000      -3.97010000      -2.51770000
C        0.62270000      -2.02340000      -1.38000000
H        0.89420000       2.02700000       0.18220000
H       -0.57240000       1.97260000      -0.80250000
H       -0.67880000       1.85070000       0.95770000
H        0.51360000      -0.36690000       0.88740000
H       -0.99700000      -0.40030000       0.00130000
H        0.27850000      -0.03930000      -2.14560000
H        2.35800000       0.97820000      -1.31610000
H        2.71450000      -0.47400000      -0.35560000
H        3.44890000      -2.31620000      -3.35690000
H        3.34900000      -2.47210000      -1.58620000
H        0.98260000      -2.17620000      -3.49830000
H        1.82650000      -4.30670000      -3.30910000
H        1.00810000      -2.50030000      -0.46790000
H       -0.42510000      -2.32750000      -1.47830000
