17
Properties=species:S:1:pos:R:3 gdb_46750=T pbc="F F F"
O       -0.04270000      -0.01380000       0.31140000
C       -0.03210000       1.16990000       0.07130000
N       -1.12680000       1.97010000      -0.19120000
C       -0.87330000       3.40030000      -0.08800000
C        0.67610000       3.42650000      -0.04450000
C        1.46410000       3.69730000       1.24660000
C        1.06420000       2.73860000       2.34240000
C        1.91030000       2.23910000       1.20910000
N        1.10900000       2.00390000      -0.00810000
H       -2.04660000       1.56770000      -0.11820000
H       -1.26410000       3.94210000      -0.95560000
H       -1.31740000       3.84010000       0.81570000
H        1.09880000       3.95270000      -0.90440000
H        2.05750000       4.58230000       1.43260000
H        1.59420000       2.88430000       3.27820000
H        0.03890000       2.39960000       2.45990000
H        2.88940000       1.79360000       1.32220000
