17
Properties=species:S:1:pos:R:3 gdb_17207=T pbc="F F F"
C       -0.27740000       1.36450000       0.06270000
C        1.16360000       0.89860000      -0.04470000
C        0.04020000      -0.09230000      -0.00040000
N       -0.20990000      -1.07040000       1.08640000
C       -0.50140000      -2.12300000       0.07230000
C       -1.98600000      -2.15200000      -0.33400000
O       -1.76810000      -1.14850000      -1.36090000
C       -0.35690000      -1.09830000      -1.07950000
H       -0.60800000       1.75350000       1.01970000
H       -0.74430000       1.82440000      -0.80170000
H        1.69080000       1.03950000      -0.98350000
H        1.79110000       0.99150000       0.83690000
H        0.63790000      -1.27960000       1.60470000
H        0.04000000      -3.06340000       0.17130000
H       -2.33350000      -3.09450000      -0.77540000
H       -2.68170000      -1.81810000       0.44280000
H        0.25740000      -1.17750000      -1.98020000
