19
Properties=species:S:1:pos:R:3 gdb_66101=T pbc="F F F"
C       -0.01890000       1.52690000      -0.00390000
C        0.02800000      -0.01240000      -0.01620000
C        0.83660000      -0.60450000      -1.21070000
C        1.40150000      -1.93010000      -0.65530000
N        1.53970000      -1.79380000       0.80840000
C        2.22910000      -0.56330000       1.22170000
C        0.74520000      -0.62030000       1.20180000
C       -1.34810000      -0.53520000      -0.04650000
N       -2.43130000      -0.93810000      -0.07390000
H        0.99820000       1.92630000       0.03020000
H       -0.51590000       1.91030000      -0.89920000
H       -0.56450000       1.89490000       0.86910000
H        0.21690000      -0.74790000      -2.09740000
H        1.63200000       0.09550000      -1.47990000
H        0.70060000      -2.75110000      -0.83580000
H        2.36110000      -2.20320000      -1.10360000
H        2.75060000      -0.63510000       2.17120000
H        2.74520000       0.03200000       0.47260000
H        0.18240000      -0.68970000       2.12770000
