16
Properties=species:S:1:pos:R:3 gdb_131496=T pbc="F F F"
O        0.12080000       1.35320000       0.66300000
C        0.06170000       0.06250000       0.14180000
C       -0.46280000      -0.98660000       1.07880000
C       -1.29270000      -0.57470000      -0.11230000
N       -2.50060000       0.17770000       0.03460000
C       -2.87670000       1.09970000       0.95550000
C       -4.13500000       1.48080000       0.55400000
N       -4.46520000       0.79040000      -0.56980000
N       -3.47910000       0.00230000      -0.88720000
H       -0.06180000       1.97720000      -0.04900000
H        0.86800000      -0.20470000      -0.54020000
H       -0.02090000      -1.97610000       1.07500000
H       -0.78150000      -0.63120000       2.05230000
H       -1.39330000      -1.26070000      -0.94350000
H       -2.23580000       1.40490000       1.76250000
H       -4.80640000       2.19590000       1.00100000
