16
Properties=species:S:1:pos:R:3 gdb_124109=T pbc="F F F"
C       -0.11260000       1.51160000      -0.04220000
C       -0.03990000       0.06030000      -0.00500000
C        0.02420000      -1.14470000       0.02560000
C        0.10570000      -2.54810000       0.06060000
C        1.17330000      -3.43280000      -0.00980000
C        2.62830000      -3.13980000      -0.15090000
N        0.68090000      -4.70010000       0.07330000
N       -0.61720000      -4.66290000       0.19020000
N       -0.97560000      -3.37290000       0.18380000
H        0.45720000       1.95930000       0.77960000
H        0.28960000       1.90580000      -0.98200000
H       -1.14920000       1.85430000       0.04600000
H        3.19290000      -3.54330000       0.69570000
H        3.03340000      -3.59700000      -1.05930000
H        2.80030000      -2.06220000      -0.19960000
H       -1.94730000      -3.11790000       0.26450000
