19
Properties=species:S:1:pos:R:3 gdb_119236=T pbc="F F F"
C       -0.04600000       1.46470000       0.55230000
O       -0.08030000       0.05860000       0.48360000
C       -1.22770000      -0.42760000      -0.18800000
C       -1.13330000      -1.92830000      -0.25280000
C       -1.36970000      -2.74110000       1.02270000
C       -2.38910000      -2.77980000      -0.05800000
O       -3.59660000      -2.09470000       0.07430000
C       -0.13660000      -2.49000000      -1.20360000
O        0.11050000      -3.66860000      -1.31150000
H        0.86530000       1.74370000       1.08650000
H       -0.02630000       1.92380000      -0.44890000
H       -0.91530000       1.86880000       1.09500000
H       -2.14910000      -0.12430000       0.32700000
H       -1.27320000      -0.00890000      -1.20910000
H       -0.73400000      -3.60870000       1.15850000
H       -1.59080000      -2.15810000       1.90980000
H       -2.42280000      -3.67290000      -0.68020000
H       -4.09990000      -2.51380000       0.78010000
H        0.37510000      -1.73550000      -1.84010000
