20
Properties=species:S:1:pos:R:3 gdb_96028=T pbc="F F F"
C       -0.48510000       1.44640000      -0.06360000
C        0.02580000       0.00710000      -0.01280000
C        1.11110000      -0.31740000      -1.07140000
O        2.06230000      -1.18320000      -0.45310000
C        1.51590000      -1.65040000       0.77330000
C        0.68660000      -0.47570000       1.30510000
C        1.58770000       0.59160000       1.96870000
C        2.17850000       0.11120000       3.21580000
N        2.63290000      -0.28690000       4.20110000
H        0.32580000       2.17310000       0.05130000
H       -0.96520000       1.64790000      -1.02660000
H       -1.22760000       1.63710000       0.71830000
H       -0.82750000      -0.65960000      -0.18450000
H        0.67450000      -0.79910000      -1.95680000
H        1.64000000       0.58310000      -1.40820000
H        0.87370000      -2.53150000       0.61480000
H        2.34450000      -1.94260000       1.42420000
H       -0.06500000      -0.80290000       2.02880000
H        2.39760000       0.87340000       1.28650000
H        1.01890000       1.50030000       2.18930000
