17
Properties=species:S:1:pos:R:3 gdb_30460=T pbc="F F F"
C       -0.04450000       1.44100000       0.02990000
N        0.03070000      -0.00640000      -0.01940000
C       -1.03930000      -0.67470000      -0.00730000
O       -2.28500000       0.01010000       0.05410000
C       -3.43460000      -0.68140000       0.06830000
C       -3.48640000      -2.02590000       0.02660000
C       -4.76530000      -2.81210000       0.04190000
C       -2.19250000      -2.66920000      -0.03540000
N       -1.05770000      -2.05560000      -0.05150000
H        0.96810000       1.85020000       0.01110000
H       -0.60110000       1.85550000      -0.82210000
H       -0.54520000       1.79840000       0.94040000
H       -4.30090000      -0.02840000       0.11680000
H       -4.86590000      -3.43110000      -0.85710000
H       -4.81050000      -3.48700000       0.90440000
H       -5.63520000      -2.15130000       0.09020000
H       -2.15630000      -3.75980000      -0.07190000
