17
Properties=species:S:1:pos:R:3 gdb_93303=T pbc="F F F"
O        0.16680000       1.39920000      -0.12370000
C        0.04570000      -0.00950000      -0.00090000
C        0.60280000      -0.53630000       1.34810000
N       -0.59090000      -0.65050000       2.17290000
C       -1.76220000      -0.76760000       1.46490000
O       -2.85830000      -1.00940000       1.91550000
C       -1.40110000      -0.49010000       0.01930000
C       -2.42550000      -0.03950000      -0.95180000
N       -1.96040000      -1.43120000      -0.97640000
H       -0.41110000       1.80680000       0.53160000
H        0.61070000      -0.41670000      -0.84350000
H        1.10870000      -1.50330000       1.21960000
H        1.32000000       0.17900000       1.75970000
H       -0.56490000      -0.91790000       3.14460000
H       -3.44370000       0.08380000      -0.59520000
H       -2.10350000       0.64410000      -1.73230000
H       -1.28360000      -1.54940000      -1.72850000
