15
Properties=species:S:1:pos:R:3 gdb_4871=T pbc="F F F"
N       -0.23680000      -0.10270000      -0.58730000
H        0.23680000      -0.39750000       0.26400000
H        0.46790000      -0.11020000      -1.32000000
H       -0.88900000      -0.84670000      -0.82060000
C       -0.58860000       2.22170000       1.83750000
C        0.11760000       1.55430000       2.75080000
C        0.44250000       1.90470000       4.12460000
C        1.17930000       0.91500000       4.65220000
C        1.35790000      -0.12460000       3.62000000
O        1.93510000      -1.17250000       3.63770000
O        0.68660000       0.32440000       2.48220000
H       -1.01460000       3.18280000       2.09700000
H       -0.74010000       1.81400000       0.84290000
H        0.11850000       2.82320000       4.59380000
H        1.59980000       0.82460000       5.64170000
