20
Properties=species:S:1:pos:R:3 gdb_101913=T pbc="F F F"
C       -0.16750000       0.27490000       0.86500000
C       -0.64390000       0.34270000      -0.56740000
O       -1.40670000       1.19380000      -0.96460000
C       -0.08190000      -0.67950000      -1.57100000
C        1.28650000      -0.21390000      -2.11070000
O        2.29340000      -0.25870000      -1.12090000
N        0.11040000      -1.99840000      -0.96630000
C       -1.08090000      -2.83090000      -0.80710000
C       -0.07160000      -3.14950000      -1.85180000
H       -0.35900000      -0.71300000       1.29380000
H        0.91860000       0.41660000       0.87460000
H       -0.66040000       1.04970000       1.45310000
H       -0.79580000      -0.69700000      -2.41040000
H        1.54720000      -0.84750000      -2.97410000
H        1.21490000       0.81910000      -2.46340000
H        2.20340000      -1.12330000      -0.69810000
H       -1.13020000      -3.41500000       0.10700000
H       -2.03150000      -2.42000000      -1.14120000
H       -0.34490000      -2.95440000      -2.88700000
H        0.62550000      -3.96980000      -1.71040000
