15
Properties=species:S:1:pos:R:3 gdb_31098=T pbc="F F F"
C        0.04620000       1.42920000      -0.01160000
O       -0.02370000       0.00760000      -0.02900000
C        0.57000000      -0.60110000      -1.07150000
C        0.68280000      -1.93700000      -1.26000000
O        0.40830000      -3.03420000      -0.53660000
O        1.36420000      -2.11200000      -2.47560000
C        1.59150000      -0.86110000      -2.90350000
N        2.18530000      -0.72170000      -4.13520000
N        1.15640000       0.08620000      -2.12650000
H        1.08380000       1.77770000       0.02280000
H       -0.43810000       1.86430000      -0.89170000
H       -0.47870000       1.73880000       0.89360000
H       -0.42850000      -3.42190000      -0.82420000
H        2.83580000      -1.45790000      -4.37030000
H        2.56260000       0.20350000      -4.28010000
