23
Properties=species:S:1:pos:R:3 gdb_81779=T pbc="F F F"
C       -0.05870000       1.57690000      -0.12920000
C        0.02320000       0.06120000      -0.00770000
C        1.05750000      -0.65500000      -0.88500000
O        2.35630000      -0.21630000      -0.45210000
C        1.71630000      -1.28190000       0.27170000
C        2.47330000      -2.56130000       0.43230000
C        0.72220000      -0.61080000       1.26030000
C        1.36490000       0.32140000       2.28370000
C       -0.20400000      -1.62470000       1.93270000
H        0.93720000       2.02570000      -0.10270000
H       -0.53200000       1.86230000      -1.07550000
H       -0.65420000       2.01250000       0.68010000
H       -0.96890000      -0.38300000      -0.14440000
H        0.97280000      -0.98570000      -1.91550000
H        2.95910000      -2.83390000      -0.50850000
H        3.25150000      -2.46120000       1.19770000
H        1.81010000      -3.37800000       0.73340000
H        2.08870000       0.98670000       1.80870000
H        0.61050000       0.93490000       2.78900000
H        1.88800000      -0.25450000       3.05630000
H        0.32970000      -2.21070000       2.68970000
H       -1.03520000      -1.11600000       2.43350000
H       -0.63200000      -2.32530000       1.20680000
