17
Properties=species:S:1:pos:R:3 gdb_28274=T pbc="F F F"
C       -0.02000000       1.48080000       0.04550000
C       -0.00060000      -0.01200000      -0.01900000
C       -0.03440000      -0.78290000      -1.12630000
C        0.00250000      -2.18730000      -0.74630000
C        0.00330000      -3.46660000      -1.20050000
O        0.06000000      -4.32700000      -0.13550000
C        0.09550000      -3.57300000       1.00750000
C        0.06260000      -2.25990000       0.68960000
C        0.06440000      -0.86540000       1.25080000
H        0.87670000       1.87170000       0.54390000
H       -0.07200000       1.92340000      -0.95270000
H       -0.87890000       1.84550000       0.62390000
H       -0.08190000      -0.40770000      -2.14150000
H       -0.02940000      -3.93340000      -2.17040000
H        0.14170000      -4.13540000       1.92560000
H        0.96330000      -0.63550000       1.83850000
H       -0.79000000      -0.66210000       1.91020000
