15
Properties=species:S:1:pos:R:3 gdb_36540=T pbc="F F F"
N       -0.12920000      -0.43880000      -1.25230000
C        0.04020000       0.34830000      -0.42140000
C        0.29690000       1.40150000       0.57830000
N        1.43000000       2.27750000       0.33790000
C        1.75990000       2.66540000      -0.82860000
C        2.89480000       3.64330000      -1.12370000
N        2.95370000       3.78720000      -2.58320000
C        2.02230000       3.04660000      -3.03790000
N        1.24870000       2.37800000      -2.08970000
H       -0.62570000       1.99190000       0.67870000
H        0.44490000       0.90640000       1.54430000
H        2.70830000       4.61240000      -0.64850000
H        3.84830000       3.27370000      -0.73250000
H        1.79340000       2.91950000      -4.09090000
H        0.59360000       1.64020000      -2.29640000
