14
Properties=species:S:1:pos:R:3 gdb_71460=T pbc="F F F"
O       -0.12860000       1.41290000      -0.03150000
C       -0.00250000       0.04520000      -0.04570000
C        0.65630000      -0.80300000      -1.12390000
N       -0.29870000      -1.94860000      -0.75880000
C       -1.12140000      -0.97860000       0.03420000
C       -0.22420000      -0.81620000       1.20460000
O        0.53790000      -1.99430000       1.39250000
C        0.43470000      -2.72280000       0.22820000
O        0.94180000      -3.78620000       0.07550000
H        0.63020000       1.79340000       0.42580000
H        0.42120000      -0.45600000      -2.13150000
H        1.72120000      -1.04600000      -1.04700000
H       -2.20030000      -0.94210000      -0.03380000
H       -0.53020000      -0.33690000       2.12430000
