14
Properties=species:S:1:pos:R:3 gdb_20948=T pbc="F F F"
C       -0.04200000       1.53400000      -0.06960000
C       -0.00590000       0.02200000       0.11630000
N       -1.34550000      -0.54140000      -0.01630000
C       -1.53770000      -1.88090000      -0.00700000
N       -0.61280000      -2.80210000      -0.12200000
O       -1.33560000      -3.97370000      -0.11100000
N       -2.66700000      -3.68540000       0.02660000
N       -2.80840000      -2.43580000       0.09170000
H        0.96540000       1.94830000       0.02010000
H       -0.43920000       1.79900000      -1.05360000
H       -0.66610000       2.01270000       0.69360000
H        0.62630000      -0.44420000      -0.64600000
H        0.43320000      -0.23710000       1.09090000
H       -2.11550000      -0.00490000       0.35360000
