16
Properties=species:S:1:pos:R:3 gdb_24652=T pbc="F F F"
C       -0.17380000       1.21920000      -0.40520000
C        1.24340000       1.06830000       0.05530000
N        0.31160000      -0.03360000       0.15300000
C       -0.11430000      -0.52890000       1.37730000
N        0.80470000      -0.70650000       2.33210000
C        0.37600000      -1.25460000       3.47000000
N       -0.86150000      -1.63800000       3.77490000
C       -1.76840000      -1.44460000       2.80510000
C       -1.45420000      -0.89390000       1.57740000
H       -0.83980000       1.81890000       0.21130000
H       -0.41350000       1.20480000      -1.46440000
H        2.04030000       0.94740000      -0.67220000
H        1.53200000       1.55430000       0.98270000
H        1.13050000      -1.39840000       4.24070000
H       -2.78860000      -1.74720000       3.03030000
H       -2.19760000      -0.75310000       0.80220000
