18
Properties=species:S:1:pos:R:3 gdb_29782=T pbc="F F F"
C       -0.08160000       1.45350000      -0.02200000
N       -0.06070000       0.00700000      -0.00150000
C       -0.12960000      -0.80500000      -1.09940000
C       -0.01660000      -2.11720000      -0.67610000
N       -0.04300000      -3.36120000      -1.38020000
C        0.13540000      -2.08220000       0.73360000
O        0.26380000      -3.17860000       1.52980000
C        0.11180000      -0.76740000       1.14470000
N        0.18480000      -0.16270000       2.41900000
H       -0.26110000       1.80460000       0.99460000
H        0.87060000       1.86980000      -0.37360000
H       -0.88150000       1.81040000      -0.67740000
H       -0.24700000      -0.39060000      -2.08870000
H        0.72100000      -3.43900000      -2.04400000
H       -0.90400000      -3.48330000      -1.90340000
H        0.21450000      -3.92990000       0.91980000
H        1.11000000      -0.25150000       2.82910000
H       -0.46480000      -0.59870000       3.06540000
