19
Properties=species:S:1:pos:R:3 gdb_126526=T pbc="F F F"
C        0.11930000       1.60650000      -0.03320000
C        0.05550000       0.07780000      -0.02090000
C        0.67230000      -0.53210000       1.25450000
C        0.60930000      -2.02650000       1.29370000
C       -0.31550000      -2.89130000       1.85140000
C        0.15540000      -4.17680000       1.50800000
O       -0.43340000      -5.34400000       1.84510000
N        1.27390000      -4.14230000       0.80000000
N        1.52900000      -2.81140000       0.67930000
H        1.15440000       1.96270000       0.01690000
H       -0.32930000       2.01460000      -0.94380000
H       -0.41730000       2.03190000       0.82220000
H       -0.98510000      -0.25650000      -0.10320000
H        0.57420000      -0.32540000      -0.89920000
H        1.71630000      -0.20290000       1.34490000
H        0.15050000      -0.13690000       2.13270000
H       -1.19310000      -2.63770000       2.42210000
H        0.11330000      -6.04960000       1.47730000
H        2.35410000      -2.51920000       0.18560000
