23
Properties=species:S:1:pos:R:3 gdb_108872=T pbc="F F F"
C        0.07750000       1.57740000      -0.17010000
C       -0.06460000       0.05850000       0.03650000
C        0.64260000      -0.45650000       1.26880000
C       -0.03030000      -0.82430000       2.36400000
C        0.59230000      -1.37250000       3.62370000
O       -0.20110000      -2.42540000       4.17370000
C        2.04270000      -1.80840000       3.38760000
C        2.79980000      -0.74760000       2.58320000
C        2.15360000      -0.54150000       1.20620000
H        1.12470000       1.87860000      -0.27190000
H       -0.44650000       1.89510000      -1.07700000
H       -0.34680000       2.12490000       0.67720000
H       -1.12850000      -0.19530000       0.09740000
H        0.33090000      -0.45740000      -0.84990000
H       -1.11660000      -0.75030000       2.38630000
H        0.57280000      -0.60040000       4.40610000
H       -0.29700000      -3.09480000       3.48690000
H        2.52900000      -2.01130000       4.34680000
H        2.03310000      -2.75470000       2.82790000
H        2.78620000       0.20160000       3.13480000
H        3.85260000      -1.02680000       2.46860000
H        2.42890000      -1.36910000       0.53380000
H        2.55940000       0.36010000       0.73110000
