19
Properties=species:S:1:pos:R:3 gdb_92122=T pbc="F F F"
C        0.22690000       1.48650000      -0.35710000
C        0.03490000       0.04530000       0.06610000
O        0.72850000      -0.90590000      -0.79220000
C        1.32510000      -1.57020000       0.33350000
C        2.76250000      -1.06520000       0.62020000
C        2.15180000      -0.05890000       1.61210000
C        2.70660000       0.41800000       2.88100000
O        2.54960000       1.29390000       1.75710000
C        0.72260000      -0.52990000       1.32890000
H        1.28090000       1.76860000      -0.36210000
H       -0.18200000       1.63070000      -1.36250000
H       -0.30510000       2.15600000       0.32700000
H       -1.03710000      -0.19920000       0.07710000
H        1.13000000      -2.64460000       0.35270000
H        3.43120000      -1.79720000       1.08260000
H        3.24560000      -0.62720000      -0.25580000
H        2.04560000       0.61810000       3.72380000
H        3.73630000       0.17660000       3.14310000
H        0.08650000      -0.76280000       2.18240000
