19
Properties=species:S:1:pos:R:3 gdb_35756=T pbc="F F F"
C       -0.08460000      -1.24490000      -0.27880000
C       -0.04390000      -0.05550000      -0.10810000
C        0.00670000       1.39810000       0.09380000
O       -0.64720000       1.79080000       1.30210000
C        0.18860000       1.90110000       2.45390000
C        1.59100000       2.39990000       2.08960000
C        1.48230000       3.28980000       0.81670000
C        1.45150000       1.94350000       0.03820000
C        2.28090000       1.33420000       1.19770000
H       -0.13160000      -2.29490000      -0.43140000
H       -0.58050000       1.87660000      -0.70080000
H       -0.32630000       2.61060000       3.11080000
H        0.25390000       0.93610000       2.98030000
H        2.11650000       2.77640000       2.97030000
H        0.62310000       3.95850000       0.72500000
H        2.40680000       3.83950000       0.62590000
H        1.83940000       1.89110000      -0.98090000
H        3.34960000       1.52710000       1.07410000
H        2.12350000       0.27910000       1.43730000
