15
Properties=species:S:1:pos:R:3 gdb_132191=T pbc="F F F"
C        0.05650000       1.49130000       0.03100000
C       -0.00950000      -0.00770000      -0.03860000
N        0.07700000      -0.62890000      -1.15740000
C        0.01220000      -2.04640000      -1.20130000
N        0.09490000      -2.69900000      -2.29980000
C       -0.15520000      -2.74950000       0.07140000
C       -0.23680000      -2.02730000       1.19110000
F       -0.38840000      -2.52470000       2.40960000
N       -0.16790000      -0.65360000       1.17560000
H        0.89740000       1.81750000       0.65350000
H        0.18200000       1.88620000      -0.97570000
H       -0.86020000       1.90330000       0.46800000
H        0.20740000      -2.03000000      -3.06440000
H       -0.21000000      -3.82800000       0.09090000
H       -0.23380000      -0.14710000       2.04360000
