19
Properties=species:S:1:pos:R:3 gdb_58673=T pbc="F F F"
C        0.21030000       1.15870000      -0.43020000
N       -0.03050000      -0.16870000       0.13530000
C        0.48060000      -0.28740000       1.50560000
C       -1.39770000      -0.60720000       0.02070000
C       -1.84220000      -1.11480000      -1.35360000
C       -1.54470000      -2.10720000      -0.27470000
O       -0.39200000      -2.87080000      -0.29900000
C       -2.38290000       0.05040000       0.85160000
N       -3.14190000       0.59380000       1.53690000
H        1.28530000       1.36060000      -0.42530000
H       -0.14260000       1.19000000      -1.46400000
H       -0.29480000       1.95860000       0.13450000
H       -0.02030000       0.39860000       2.20660000
H        0.34020000      -1.31250000       1.85650000
H        1.55060000      -0.06160000       1.50680000
H       -2.87260000      -0.93950000      -1.63990000
H       -1.11200000      -1.00880000      -2.14860000
H       -2.36950000      -2.63460000       0.19060000
H        0.33410000      -2.24440000      -0.44550000
