13
Properties=species:S:1:pos:R:3 gdb_21456=T pbc="F F F"
N        0.23380000       1.26870000       0.00430000
C        0.04020000       0.00900000       0.00160000
N       -1.20820000      -0.55930000       0.01270000
C       -2.42070000       0.11140000       0.02740000
N       -3.55730000      -0.58880000       0.03590000
N       -4.48530000       0.36680000       0.04920000
N       -4.05290000       1.61490000       0.04980000
C       -2.72460000       1.48900000       0.03590000
H        1.23020000       1.47040000      -0.00550000
H        0.82380000      -0.75700000      -0.00950000
H       -1.27340000      -1.56390000       0.00900000
H       -5.46630000       0.14350000       0.05820000
H       -2.05610000       2.32930000       0.03250000
