18
Properties=species:S:1:pos:R:3 gdb_16006=T pbc="F F F"
C        0.02650000       1.49060000      -0.00050000
O        1.20650000       0.68160000       0.00690000
C       -0.07690000       0.02820000       0.00590000
C       -0.39280000      -0.73120000       1.27660000
C        0.36750000      -2.06820000       1.29370000
C        0.25030000      -2.79170000      -0.02340000
C       -0.10740000      -2.19490000      -1.15970000
C       -0.41860000      -0.72300000      -1.26910000
H       -0.16400000       2.05130000       0.91460000
H       -0.15490000       2.04260000      -0.92290000
H       -0.13360000      -0.12490000       2.14940000
H       -1.47240000      -0.92520000       1.31400000
H        1.42730000      -1.88270000       1.51840000
H       -0.00490000      -2.70230000       2.10700000
H        0.48320000      -3.85380000      -0.02560000
H       -0.18140000      -2.77430000      -2.07680000
H       -1.48350000      -0.58440000      -1.50980000
H        0.14170000      -0.27480000      -2.09830000
