21
Properties=species:S:1:pos:R:3 gdb_100918=T pbc="F F F"
C        0.10880000       1.51980000       0.14730000
C       -0.00400000       0.00280000      -0.02780000
C       -1.46150000      -0.51190000      -0.01190000
C       -2.16280000      -0.04380000      -1.27310000
O       -3.08620000       0.72700000      -1.31510000
C       -1.51850000      -2.05060000       0.08430000
O       -0.79080000      -2.54430000       1.21280000
C       -2.94460000      -2.60650000       0.13710000
O       -2.93270000      -4.01130000       0.24880000
H        1.15530000       1.83680000       0.11500000
H       -0.43020000       2.06160000      -0.63640000
H       -0.30750000       1.83790000       1.10910000
H        0.46770000      -0.30240000      -0.97190000
H        0.54350000      -0.51640000       0.76390000
H       -2.00220000      -0.07600000       0.83890000
H       -1.72590000      -0.46620000      -2.21040000
H       -1.00670000      -2.49250000      -0.77960000
H       -1.15610000      -2.12630000       2.00270000
H       -3.48160000      -2.13340000       0.98050000
H       -3.49560000      -2.35350000      -0.77550000
H       -2.22930000      -4.21590000       0.87830000
