18
Properties=species:S:1:pos:R:3 gdb_6836=T pbc="F F F"
C       -0.15780000       1.56900000      -0.13740000
C       -0.02820000       0.05780000      -0.00420000
O       -1.24450000      -0.59310000      -0.30830000
C        1.24840000      -0.55460000      -0.64510000
O        1.79920000      -0.86510000       0.65150000
C        0.55850000      -0.50780000       1.31510000
C        0.84170000       0.36210000       2.52520000
O        1.66670000      -0.33700000       3.43990000
H        0.77600000       2.08060000       0.10950000
H       -0.40840000       1.83180000      -1.17320000
H       -0.95080000       1.95160000       0.51210000
H       -1.61950000      -0.18710000      -1.09720000
H        1.03740000      -1.45740000      -1.23130000
H        1.89890000       0.11860000      -1.21630000
H        0.01180000      -1.40800000       1.62430000
H        1.30990000       1.30780000       2.21360000
H       -0.08990000       0.60000000       3.05030000
H        2.42980000      -0.64070000       2.93370000
