17
Properties=species:S:1:pos:R:3 gdb_53231=T pbc="F F F"
C       -0.07940000       1.40480000       0.31410000
C       -0.01010000      -0.04070000       0.17040000
C        0.05370000      -1.23780000       0.05380000
C        0.09390000      -2.67510000      -0.09540000
O        0.35930000      -3.41460000       1.12940000
C       -0.87180000      -4.17860000       1.07860000
C       -1.75590000      -3.99600000       2.30010000
C       -1.26780000      -3.42490000      -0.19610000
O       -2.20480000      -3.39870000      -0.92770000
H        0.57050000       1.90870000      -0.40930000
H       -1.10040000       1.77060000       0.16070000
H        0.23710000       1.71180000       1.31690000
H        0.78860000      -2.97470000      -0.89340000
H       -0.67140000      -5.24370000       0.89300000
H       -1.97610000      -2.93810000       2.46530000
H       -2.69710000      -4.53720000       2.16260000
H       -1.25380000      -4.39010000       3.18820000
