20
Properties=species:S:1:pos:R:3 gdb_89082=T pbc="F F F"
C        0.31780000       1.58590000      -0.13410000
C        0.19470000       0.08000000      -0.06370000
C        1.41700000      -0.78070000       0.20110000
C        0.33030000      -0.64460000       1.24130000
O        0.56920000       0.13100000       2.37840000
C        1.28410000      -0.55440000       3.38290000
C        1.47070000       0.43640000       4.53860000
C        2.19740000      -0.15490000       5.65730000
N        2.77410000      -0.63890000       6.53360000
H        1.01970000       1.95650000       0.61620000
H        0.66980000       1.90200000      -1.12160000
H       -0.64800000       2.06870000       0.04930000
H       -0.53930000      -0.34540000      -0.74310000
H        1.53260000      -1.72370000      -0.32170000
H        2.34560000      -0.25490000       0.39990000
H       -0.31320000      -1.50550000       1.42720000
H        0.72910000      -1.43910000       3.72960000
H        2.25960000      -0.89840000       3.01100000
H        2.01300000       1.31650000       4.17750000
H        0.49020000       0.78120000       4.88280000
