13
Properties=species:S:1:pos:R:3 gdb_24852=T pbc="F F F"
N       -0.09270000       1.15710000       0.59240000
C        0.01620000       0.02010000       0.03910000
N       -1.16990000      -0.64580000      -0.34220000
C       -1.48440000      -1.97930000      -0.22440000
O       -2.57660000      -2.42410000      -0.50670000
C       -0.44180000      -2.88920000       0.37970000
N        0.82790000      -2.81730000       0.33480000
C        1.50560000      -1.77990000      -0.31180000
N        1.22540000      -0.54030000      -0.39030000
H        0.83140000       1.57860000       0.68500000
H       -1.96990000      -0.03960000      -0.48270000
H       -0.89370000      -3.73660000       0.89760000
H        2.45710000      -2.10600000      -0.73110000
