13
Properties=species:S:1:pos:R:3 gdb_13157=T pbc="F F F"
O        0.24510000      -0.08740000       0.07960000
C        0.06380000       1.09960000       0.07260000
C        1.19790000       2.05200000       0.16280000
N        2.06070000       2.81950000       0.22300000
C       -1.28150000       1.79030000      -0.05730000
C       -1.60070000       2.31050000      -1.48900000
C       -2.73160000       1.26040000      -1.43290000
O       -2.37390000       0.88180000      -0.08140000
H       -1.36440000       2.54260000       0.74050000
H       -1.92180000       3.35070000      -1.52830000
H       -0.82700000       2.14030000      -2.23870000
H       -3.75110000       1.65550000      -1.48310000
H       -2.63070000       0.41920000      -2.12640000
