19
Properties=species:S:1:pos:R:3 gdb_86160=T pbc="F F F"
C       -0.06690000       1.51880000      -0.05740000
C        0.01680000      -0.00480000       0.01000000
O        0.62920000      -0.44060000      -1.18900000
C        0.91410000      -1.83340000      -1.24150000
C        1.50630000      -2.14580000      -2.60510000
C        1.84160000      -2.24360000      -0.08800000
O        2.61300000      -3.17710000      -0.17840000
C        1.65970000      -1.47680000       1.15960000
C        0.76920000      -0.48140000       1.22360000
H        0.93670000       1.95170000      -0.09080000
H       -0.60470000       1.81860000      -0.95990000
H       -0.59450000       1.91590000       0.81460000
H       -1.01320000      -0.41190000       0.06800000
H       -0.02330000      -2.40690000      -1.10370000
H        2.39730000      -1.53520000      -2.77550000
H        1.79510000      -3.19710000      -2.64870000
H        0.77970000      -1.93140000      -3.39220000
H        2.23390000      -1.80760000       2.01930000
H        0.55690000       0.02360000       2.16350000
