17
Properties=species:S:1:pos:R:3 gdb_131781=T pbc="F F F"
O       -0.13660000       1.47820000       0.12880000
C        0.01010000       0.07800000      -0.03280000
C       -1.39360000      -0.53490000       0.01670000
C       -1.38040000      -2.02310000      -0.12330000
C       -1.29830000      -2.84190000      -1.23620000
C       -1.28350000      -4.14990000      -0.70680000
O       -1.21380000      -5.28760000      -1.42920000
N       -1.34980000      -4.16950000       0.61630000
N       -1.40210000      -2.85290000       0.94880000
H        0.73380000       1.88250000       0.07050000
H        0.48460000      -0.17500000      -0.99280000
H        0.63100000      -0.36000000       0.76460000
H       -1.86440000      -0.24400000       0.96290000
H       -1.99390000      -0.08920000      -0.78240000
H       -1.26170000      -2.54580000      -2.27100000
H       -1.22790000      -6.02030000      -0.80070000
H       -1.48530000      -2.59880000       1.91780000
