12
Properties=species:S:1:pos:R:3 gdb_131032=T pbc="F F F"
O       -0.02320000      -0.07200000      -0.00270000
C       -0.01390000       1.12120000       0.00700000
N        1.19220000       1.89670000      -0.00020000
N        2.35700000       1.20210000      -0.01870000
C        3.44460000       1.89900000      -0.02530000
N        3.55180000       3.27730000      -0.01550000
C        2.44360000       3.93450000       0.00210000
C        1.11070000       3.30800000       0.01200000
O        0.06090000       3.91560000       0.02840000
H       -0.89000000       1.78100000       0.02220000
H        4.37260000       1.33980000      -0.04000000
H        2.45860000       5.02280000       0.01060000
