19
Properties=species:S:1:pos:R:3 gdb_82828=T pbc="F F F"
O        0.03310000       1.43180000      -0.10380000
C       -0.00110000       0.02970000       0.04580000
C        0.27100000      -0.62130000       1.43040000
C       -0.45460000       0.10010000       2.58890000
C       -1.79400000      -0.54610000       2.15570000
C       -2.42260000       0.13880000       0.91380000
C       -1.40950000      -0.59620000       0.00410000
O       -1.85600000      -1.12430000      -1.21120000
C       -1.00170000      -1.51970000       1.20490000
H        0.94910000       1.72420000      -0.05860000
H        0.60730000      -0.47710000      -0.71790000
H        1.27750000      -1.00190000       1.60790000
H       -0.12420000      -0.29100000       3.55540000
H       -0.40260000       1.19320000       2.60840000
H       -2.47520000      -0.87660000       2.93970000
H       -3.42290000      -0.25780000       0.71680000
H       -2.44190000       1.23150000       0.88120000
H       -2.08610000      -0.38620000      -1.78780000
H       -1.03740000      -2.60510000       1.20240000
