17
Properties=species:S:1:pos:R:3 gdb_73662=T pbc="F F F"
O        0.05030000       1.45180000       0.08000000
C       -0.02610000       0.06320000      -0.01730000
C        0.71390000      -0.47850000      -1.25160000
O        0.07550000      -1.69660000      -1.60280000
C       -1.31720000      -1.50950000      -1.37830000
C       -1.41750000      -0.69020000      -0.09700000
N       -1.02030000      -1.37070000       1.14540000
C        0.20880000      -0.74540000       1.25840000
N        1.17970000      -0.71210000       2.06930000
H        0.38740000       1.65960000       0.95880000
H        0.62770000       0.27560000      -2.05040000
H        1.76910000      -0.68690000      -1.06390000
H       -1.78210000      -0.94950000      -2.20670000
H       -1.78500000      -2.49690000      -1.32130000
H       -2.32200000      -0.08600000      -0.00430000
H       -1.28920000      -2.28770000       1.47160000
H        1.05580000      -1.35340000       2.85410000
