20
Properties=species:S:1:pos:R:3 gdb_75375=T pbc="F F F"
C        0.01910000       1.47090000       0.08220000
C       -0.02940000      -0.02190000      -0.07500000
N        0.01020000      -0.57250000      -1.21550000
C       -0.08350000      -2.02270000      -1.31160000
C        0.27890000      -2.76450000      -0.03460000
C        1.75490000      -2.79540000       0.46490000
C        1.23100000      -2.50510000       1.89910000
C       -0.10640000      -2.03790000       1.27760000
O       -0.12440000      -0.61050000       1.15360000
H        0.87290000       1.76170000       0.70250000
H        0.09780000       1.93760000      -0.89860000
H       -0.88330000       1.82690000       0.58970000
H       -1.11160000      -2.27500000      -1.60940000
H        0.55660000      -2.35240000      -2.13950000
H       -0.14250000      -3.77410000      -0.03670000
H        2.31000000      -3.72240000       0.30810000
H        2.33960000      -1.96480000       0.06010000
H        1.10170000      -3.41800000       2.48690000
H        1.75410000      -1.76040000       2.50200000
H       -1.03620000      -2.32130000       1.77760000
