23
Properties=species:S:1:pos:R:3 gdb_119679=T pbc="F F F"
C        0.09330000       1.57130000       0.00920000
C        0.18750000       0.04530000      -0.06270000
C        0.55150000      -0.59780000       1.28480000
C        0.63040000      -2.09670000       1.23050000
C       -0.52480000      -3.08660000       1.04840000
C        0.47450000      -4.18380000       1.50260000
C        1.51430000      -4.24370000       0.34960000
C        1.90930000      -2.83310000       0.78010000
C        1.34610000      -3.04120000       2.16930000
H        1.04540000       2.01240000       0.32540000
H       -0.16670000       2.00320000      -0.96240000
H       -0.67010000       1.88790000       0.72890000
H       -0.76860000      -0.36600000      -0.41080000
H        0.93390000      -0.24710000      -0.81170000
H        1.51410000      -0.19570000       1.63050000
H       -0.18980000      -0.29700000       2.03910000
H       -1.30560000      -2.91290000       1.79600000
H       -0.98440000      -3.20180000       0.05860000
H        0.12370000      -5.09270000       1.98710000
H        2.31290000      -4.96100000       0.56080000
H        1.13330000      -4.40640000      -0.66610000
H        2.79450000      -2.27180000       0.50640000
H        1.77320000      -2.89970000       3.15210000
