21
Properties=species:S:1:pos:R:3 gdb_1693=T pbc="F F F"
C        0.06660000       1.60230000       0.07470000
C       -0.03430000       0.07690000      -0.01560000
C        0.69470000      -0.50220000      -1.23670000
O        2.05560000      -0.06380000      -1.26110000
C        0.61220000      -2.04030000      -1.35190000
C       -0.83390000      -2.55640000      -1.38900000
C        1.38750000      -2.53270000      -2.58240000
H        1.11090000       1.92300000       0.08760000
H       -0.41300000       2.07790000      -0.78810000
H       -0.42420000       1.97760000       0.97790000
H        0.38580000      -0.38120000       0.89290000
H       -1.08820000      -0.21850000      -0.04540000
H        0.25840000      -0.06520000      -2.14650000
H        2.48390000      -0.41260000      -0.47070000
H        1.09770000      -2.45350000      -0.45260000
H       -0.84850000      -3.63740000      -1.56120000
H       -1.37350000      -2.36510000      -0.45780000
H       -1.39510000      -2.08730000      -2.20640000
H        2.40660000      -2.14150000      -2.58800000
H        1.42950000      -3.62640000      -2.60610000
H        0.89760000      -2.19970000      -3.50560000
