19
Properties=species:S:1:pos:R:3 gdb_93157=T pbc="F F F"
C       -0.03530000       1.49780000       0.07640000
N        0.00960000       0.05550000      -0.10590000
C       -1.27660000      -0.64540000      -0.14470000
C       -1.41440000      -1.57640000      -1.32550000
C       -0.66400000      -2.67030000      -1.40800000
C        0.32960000      -2.99380000      -0.31850000
N        1.31900000      -1.94120000      -0.09960000
C        1.24070000      -0.56390000      -0.00780000
O        2.27590000       0.07190000       0.14900000
H        0.98430000       1.87590000       0.04480000
H       -0.62450000       1.96440000      -0.72190000
H       -0.48540000       1.77090000       1.04130000
H       -1.44330000      -1.19860000       0.79280000
H       -2.04970000       0.12400000      -0.18340000
H       -2.11320000      -1.31190000      -2.11320000
H       -0.72980000      -3.33830000      -2.26140000
H       -0.20870000      -3.23190000       0.61340000
H        0.89170000      -3.89360000      -0.57950000
H        2.27840000      -2.22990000      -0.00290000
