23
Properties=species:S:1:pos:R:3 gdb_102548=T pbc="F F F"
C        0.15810000      -1.49680000       0.98230000
C       -0.27720000      -1.24890000      -0.46620000
C        0.76310000      -0.49550000      -1.32960000
C        1.91530000      -1.42950000      -1.69990000
O        3.01120000      -0.65230000      -2.17220000
C        0.08070000       0.14400000      -2.54440000
C       -0.76110000       1.37060000      -2.25110000
C        0.59530000      -0.01480000      -3.91190000
O       -0.51740000      -0.79560000      -3.45920000
H        1.06520000      -2.10570000       1.04750000
H        0.35770000      -0.55230000       1.50070000
H       -0.62580000      -2.02090000       1.53800000
H       -0.51570000      -2.19920000      -0.95900000
H       -1.21410000      -0.68330000      -0.45350000
H        1.19360000       0.32050000      -0.73320000
H        2.21210000      -2.00970000      -0.81580000
H        1.56700000      -2.14470000      -2.46120000
H        3.73800000      -1.25100000      -2.36800000
H       -0.12440000       2.19590000      -1.91400000
H       -1.29300000       1.68730000      -3.15140000
H       -1.50440000       1.18190000      -1.47070000
H        0.35340000       0.74500000      -4.65540000
H        1.51870000      -0.55570000      -4.09130000
