23
Properties=species:S:1:pos:R:3 gdb_120952=T pbc="F F F"
C        0.06340000       1.34510000       0.01490000
O        0.00410000      -0.05830000       0.06660000
C       -1.31220000      -0.56030000      -0.05060000
C       -1.25420000      -2.07700000       0.03200000
C       -0.77360000      -2.64680000       1.41080000
C       -1.96500000      -3.57160000       1.73140000
C       -2.23190000      -4.24470000       0.35340000
C       -2.62230000      -2.79260000      -0.05220000
C       -3.18190000      -2.66230000       1.39750000
H        1.11260000       1.63450000       0.11570000
H       -0.32220000       1.73750000      -0.94010000
H       -0.51300000       1.81120000       0.83060000
H       -1.94830000      -0.14170000       0.74790000
H       -1.75490000      -0.24610000      -1.01260000
H       -0.59900000      -2.41870000      -0.77680000
H        0.17140000      -3.19080000       1.33120000
H       -0.64020000      -1.85840000       2.15770000
H       -1.91620000      -4.14950000       2.65500000
H       -1.39010000      -4.71460000      -0.16510000
H       -3.08990000      -4.92080000       0.37190000
H       -3.23880000      -2.58740000      -0.92900000
H       -4.13740000      -3.17860000       1.51690000
H       -3.23440000      -1.67270000       1.86020000
