20
Properties=species:S:1:pos:R:3 gdb_47838=T pbc="F F F"
O       -0.14720000      -0.12910000       0.19170000
C       -0.04030000       1.08060000       0.10030000
C       -1.26450000       1.99470000       0.21580000
C       -1.68870000       2.87430000      -0.93730000
C       -1.11900000       3.08810000      -2.12470000
C        0.16650000       2.49370000      -2.64800000
C        1.43280000       3.12270000      -2.02830000
C        1.45130000       3.02250000      -0.49320000
N        1.19230000       1.67830000      -0.00230000
H       -2.08940000       1.32160000       0.47040000
H       -1.12110000       2.63730000       1.09790000
H       -2.61620000       3.40580000      -0.72820000
H       -1.61960000       3.79070000      -2.78760000
H        0.18570000       1.41390000      -2.46860000
H        0.20860000       2.61920000      -3.73430000
H        2.31590000       2.61940000      -2.44180000
H        1.51110000       4.18040000      -2.30860000
H        2.42150000       3.35050000      -0.10600000
H        0.70170000       3.69500000      -0.07030000
H        1.93340000       0.99870000      -0.11280000
