23
Properties=species:S:1:pos:R:3 gdb_101689=T pbc="F F F"
C       -0.26920000       1.54020000       0.40280000
C       -0.01230000       0.07170000       0.07370000
C       -1.30880000      -0.69830000      -0.20590000
O       -1.94850000      -0.22180000      -1.37320000
O        0.76820000      -0.02270000      -1.13230000
C        2.07670000      -0.51500000      -1.00520000
C        3.05930000       0.44910000      -0.37570000
C        2.24350000      -2.00260000      -0.79650000
C        2.51270000      -1.37550000      -2.15180000
H        0.66950000       2.08870000       0.51190000
H       -0.85440000       2.00090000      -0.39700000
H       -0.83350000       1.63060000       1.33700000
H        0.52090000      -0.42110000       0.89680000
H       -1.07800000      -1.77270000      -0.28750000
H       -2.01400000      -0.57040000       0.62280000
H       -1.25940000      -0.19670000      -2.04900000
H        2.79610000       0.67090000       0.66430000
H        4.06870000       0.02800000      -0.37860000
H        3.07790000       1.39210000      -0.93170000
H        3.08550000      -2.35320000      -0.20910000
H        1.34480000      -2.60040000      -0.69930000
H        1.78230000      -1.55250000      -2.93260000
H        3.53800000      -1.29630000      -2.49640000
