18
Properties=species:S:1:pos:R:3 gdb_24426=T pbc="F F F"
C        0.00190000       1.54880000      -0.00040000
C        1.45680000       2.05630000       0.04230000
N        2.21160000       1.59460000       1.21840000
C        1.87390000       0.29420000       1.56320000
C        0.91850000      -0.51090000       1.02040000
C       -0.05240000       0.00650000      -0.00050000
C        1.07850000      -1.78000000       1.67850000
C        2.09390000      -1.62970000       2.56520000
O        2.60610000      -0.35630000       2.50000000
H       -0.53450000       1.93320000       0.87600000
H       -0.49780000       1.95180000      -0.88750000
H        1.98550000       1.70740000      -0.85440000
H        1.48890000       3.14880000       0.02930000
H        2.17160000       2.24060000       1.99870000
H       -1.07300000      -0.33020000       0.21660000
H        0.18480000      -0.37540000      -1.00350000
H        0.49920000      -2.67740000       1.52100000
H        2.55910000      -2.27730000       3.28840000
