14
Properties=species:S:1:pos:R:3 gdb_25679=T pbc="F F F"
C       -0.01490000       1.45340000       0.01010000
C        0.00520000       0.00170000       0.00240000
C        0.02000000      -1.20360000      -0.00410000
C        0.03840000      -2.62940000      -0.01160000
N        1.23700000      -3.23930000      -0.02160000
C        1.18030000      -4.56720000      -0.02830000
N        0.07330000      -5.31330000      -0.02610000
C       -1.05260000      -4.59630000      -0.01600000
N       -1.14400000      -3.27040000      -0.00840000
H        0.99910000       1.86590000       0.00260000
H       -0.54610000       1.83950000      -0.86670000
H       -0.52930000       1.83040000       0.90080000
H        2.13090000      -5.09660000      -0.03650000
H       -1.98910000      -5.15040000      -0.01370000
