15
Properties=species:S:1:pos:R:3 gdb_13054=T pbc="F F F"
O       -0.41180000       0.08620000      -0.43220000
C       -0.03570000       1.16540000      -0.05240000
C        1.36900000       1.69960000      -0.23380000
C        1.37630000       2.96190000      -1.10490000
N        0.74990000       4.17280000      -0.50040000
C        1.93420000       5.02910000      -0.78200000
C        2.69850000       3.75570000      -1.17760000
O        3.83580000       3.47510000      -1.39850000
H       -0.72780000       1.86850000       0.46250000
H        1.77190000       1.95940000       0.75320000
H        1.99390000       0.92650000      -0.68870000
H        1.01290000       2.72340000      -2.11580000
H       -0.09470000       4.47670000      -0.96980000
H        1.83140000       5.72600000      -1.62510000
H        2.31960000       5.57950000       0.08280000
