23
Properties=species:S:1:pos:R:3 gdb_112902=T pbc="F F F"
C       -0.51860000       1.48280000      -0.13640000
C       -0.11660000       0.01320000       0.00130000
C        0.85260000      -0.50130000      -1.10200000
C        1.69250000      -1.63660000      -0.45120000
O        3.06670000      -1.26450000      -0.25410000
C        1.08450000      -1.81380000       0.94590000
C        0.57760000      -0.40990000       1.32140000
C        1.72530000       0.55460000       1.73320000
O        2.79670000      -0.07540000       2.41010000
H        0.34760000       2.15120000      -0.10190000
H       -1.02920000       1.65860000      -1.08950000
H       -1.20380000       1.78170000       0.66420000
H       -1.03530000      -0.58450000      -0.06990000
H        0.30810000      -0.84720000      -1.98580000
H        1.52340000       0.29920000      -1.43610000
H        1.65950000      -2.56210000      -1.04030000
H        3.43030000      -0.97340000      -1.09600000
H        0.23410000      -2.50180000       0.88660000
H        1.80340000      -2.22800000       1.65440000
H       -0.14300000      -0.47170000       2.14360000
H        2.10280000       1.08430000       0.84800000
H        1.33220000       1.31640000       2.41440000
H        3.28950000      -0.54570000       1.72430000
