22
Properties=species:S:1:pos:R:3 gdb_95226=T pbc="F F F"
C        0.15220000       1.67490000      -0.01820000
C       -0.03010000       0.15410000       0.05050000
C        0.38430000      -0.50940000      -1.29200000
C        0.56870000      -2.03840000      -1.23170000
C       -0.48870000      -2.76080000      -0.41870000
N        0.00850000      -3.83510000       0.46560000
C       -0.52180000      -2.58630000       1.05930000
C        0.45420000      -1.66910000       1.71440000
C        0.68370000      -0.43920000       1.25170000
H        1.21110000       1.93620000      -0.13160000
H       -0.38770000       2.09970000      -0.87080000
H       -0.21660000       2.16180000       0.89050000
H       -1.10110000      -0.04570000       0.18080000
H       -0.37370000      -0.24440000      -2.03990000
H        1.32340000      -0.06360000      -1.64380000
H        0.60170000      -2.44520000      -2.24950000
H        1.53340000      -2.27140000      -0.77460000
H       -1.44620000      -2.92470000      -0.91130000
H       -0.69000000      -4.56980000       0.54860000
H       -1.49500000      -2.66300000       1.54620000
H        0.98660000      -2.04320000       2.58590000
H        1.41820000       0.19070000       1.75090000
