15
Properties=species:S:1:pos:R:3 gdb_112503=T pbc="F F F"
O        0.07380000       1.09160000      -0.68320000
C        0.05960000      -0.22720000      -0.18370000
C       -1.35180000      -0.60090000       0.26600000
O       -2.28680000      -0.50070000      -0.84320000
C       -2.62690000      -1.91500000      -0.83590000
C       -2.27590000      -2.62780000      -2.04470000
C       -1.96100000      -3.23340000      -3.03390000
C       -1.67470000      -2.09050000       0.38850000
O       -1.35310000      -2.99180000       1.09230000
H       -0.57720000       1.12030000      -1.39510000
H        0.40970000      -0.95220000      -0.93400000
H        0.74190000      -0.26430000       0.67120000
H       -1.66680000       0.01980000       1.11360000
H       -3.68350000      -2.06450000      -0.57680000
H       -1.69160000      -3.76780000      -3.91180000
