12
Properties=species:S:1:pos:R:3 gdb_18826=T pbc="F F F"
O        0.00160000       0.02190000       0.19430000
C        0.02140000       1.19780000       0.00010000
O       -1.11040000       1.97600000      -0.07140000
C       -0.73270000       3.28800000      -0.43640000
C        0.36270000       3.95660000       0.38070000
O        1.07550000       2.96930000       1.11430000
C        1.19860000       2.17150000      -0.11340000
C        0.67190000       3.33840000      -0.96730000
H       -1.53920000       3.86190000      -0.87140000
H        0.34370000       4.96970000       0.76340000
H        2.18430000       1.73350000      -0.24290000
H        1.01980000       3.71240000      -1.91960000
