15
Properties=species:S:1:pos:R:3 gdb_33868=T pbc="F F F"
N       -0.00080000      -1.14000000       0.03710000
C        0.03510000       0.01510000       0.00630000
C        0.05670000       1.45720000      -0.06860000
C       -0.97140000       2.18540000      -0.93980000
C       -0.27510000       3.47180000      -1.38830000
N        0.05620000       4.40880000      -0.30520000
C        1.10590000       3.51170000      -0.82700000
C        1.30460000       2.26370000       0.00600000
O        0.43700000       2.14140000       1.12760000
H       -1.21640000       1.56530000      -1.80740000
H       -1.89260000       2.37780000      -0.38340000
H       -0.50260000       3.86660000      -2.37320000
H        0.19190000       5.33880000      -0.69540000
H        1.95180000       3.91550000      -1.37100000
H        2.28750000       1.81450000       0.11260000
