18
Properties=species:S:1:pos:R:3 gdb_88382=T pbc="F F F"
C       -1.66580000      -1.04120000       2.73310000
C       -0.84400000      -1.07130000       1.47090000
O       -0.69900000       0.13750000       0.70280000
C        0.47740000      -0.46450000       1.23620000
C        1.35200000       0.37760000       2.16300000
C        2.33160000      -0.51290000       2.93560000
O        2.14700000       1.24270000       1.35610000
C        0.57690000       1.21340000       3.10940000
N        0.02620000       1.90340000       3.85480000
H       -1.47230000      -0.16200000       3.34490000
H       -2.72930000      -1.05170000       2.47330000
H       -1.46260000      -1.93980000       3.32610000
H       -1.05140000      -1.93850000       0.83930000
H        1.11700000      -0.93840000       0.48730000
H        2.89680000      -1.12190000       2.22550000
H        3.03070000       0.10980000       3.49680000
H        1.79670000      -1.16740000       3.62720000
H        1.54870000       1.78370000       0.82520000
