17
Properties=species:S:1:pos:R:3 gdb_80377=T pbc="F F F"
N        0.16170000       1.49390000      -0.08540000
C        0.00440000       0.05220000      -0.00010000
C        0.22310000      -0.58240000       1.42610000
C       -1.13600000      -1.28150000       1.32680000
C       -2.22400000      -0.27090000       1.13890000
O       -2.16980000       1.02510000       1.67800000
C       -1.39800000      -0.62450000      -0.05160000
C        0.88560000      -0.58120000      -0.98780000
N        1.55610000      -1.08930000      -1.78020000
H        0.00470000       1.81370000      -1.03650000
H       -0.54490000       1.92120000       0.50580000
H        1.07280000      -1.26360000       1.45850000
H        0.32430000       0.16200000       2.21910000
H       -1.33590000      -2.29730000       1.64340000
H       -3.22910000      -0.69130000       1.10280000
H       -2.30080000       0.96160000       2.63030000
H       -1.83610000      -1.04140000      -0.95060000
