20
Properties=species:S:1:pos:R:3 gdb_122409=T pbc="F F F"
O       -0.06050000       1.44590000       0.23660000
C        0.04100000       0.05260000      -0.01110000
C       -1.35870000      -0.54060000       0.08350000
C       -1.38600000      -2.05250000      -0.15960000
C       -2.78810000      -2.64480000      -0.08140000
C       -2.90890000      -4.19820000      -0.05100000
C       -3.58620000      -4.01100000       1.32920000
O       -4.09370000      -4.72370000       2.15200000
N       -3.40160000      -2.64990000       1.25820000
H        0.82100000       1.82670000       0.18740000
H        0.46170000      -0.14680000      -1.01060000
H        0.70200000      -0.43750000       0.72260000
H       -1.76060000      -0.31130000       1.07810000
H       -2.00230000      -0.02780000      -0.64220000
H       -0.97460000      -2.27760000      -1.15280000
H       -0.74710000      -2.56250000       0.57310000
H       -3.43710000      -2.18060000      -0.83490000
H       -3.55790000      -4.64020000      -0.80860000
H       -1.95920000      -4.73630000      -0.01920000
H       -3.75630000      -1.90570000       1.84070000
