18
Properties=species:S:1:pos:R:3 gdb_126780=T pbc="F F F"
C       -0.22860000       1.58520000      -0.10740000
C        0.10580000       0.09700000       0.00010000
N        0.79280000      -0.40390000      -1.17690000
N        0.11170000      -0.49810000      -2.36300000
C        1.05460000      -0.94620000      -3.16790000
O        0.80990000      -1.19030000      -4.46360000
N        2.27470000      -1.14640000      -2.60790000
C        2.07430000      -0.79000000      -1.34270000
C        3.10850000      -0.81760000      -0.26710000
H        0.68090000       2.18730000      -0.19330000
H       -0.84710000       1.76670000      -0.98920000
H       -0.77760000       1.91200000       0.78070000
H        0.74820000      -0.10020000       0.86220000
H       -0.80890000      -0.49060000       0.12550000
H        1.63860000      -1.50960000      -4.84000000
H        3.29800000       0.17940000       0.14450000
H        2.81670000      -1.47040000       0.56250000
H        4.03810000      -1.19630000      -0.69290000
