16
Properties=species:S:1:pos:R:3 gdb_89211=T pbc="F F F"
N       -0.18340000       1.44500000      -0.31210000
C       -0.02630000       0.05740000      -0.02130000
C        0.52490000      -0.84190000      -1.17740000
C       -0.70450000      -1.80370000      -1.02550000
O       -0.48950000      -3.16880000      -0.82910000
C       -1.17340000      -0.98750000       0.19580000
O       -0.49220000      -1.47110000       1.39880000
C        0.47460000      -0.47430000       1.33040000
O        1.31310000      -0.22990000       2.13430000
H       -0.39700000       1.98420000       0.52100000
H        0.66860000       1.82700000      -0.70950000
H        0.54390000      -0.30950000      -2.13070000
H        1.50130000      -1.29430000      -0.99510000
H       -1.39200000      -1.69790000      -1.86880000
H       -0.14720000      -3.27410000       0.06820000
H       -2.22080000      -0.76690000       0.39330000
