22
Properties=species:S:1:pos:R:3 gdb_119244=T pbc="F F F"
C        2.01710000       1.00780000      -3.31630000
C        2.10470000      -0.37000000      -2.65170000
C        0.73770000      -0.86130000      -2.16210000
C        0.69290000      -2.17390000      -1.38450000
C       -0.72290000      -2.62810000      -1.04220000
C       -1.39930000      -1.68350000      -0.07010000
O       -2.49530000      -1.20600000      -0.22020000
C        1.74540000      -3.21080000      -1.54490000
N        1.65120000      -2.43660000      -0.29170000
H        1.33910000       0.98790000      -4.17620000
H        1.64140000       1.76210000      -2.61660000
H        2.99740000       1.33920000      -3.67140000
H        2.52320000      -1.08800000      -3.36650000
H        2.81450000      -0.31610000      -1.81540000
H        0.28470000      -0.07920000      -1.53540000
H        0.06920000      -0.96060000      -3.02790000
H       -1.34580000      -2.72550000      -1.93660000
H       -0.66370000      -3.60650000      -0.54850000
H       -0.78820000      -1.45700000       0.83210000
H        1.48580000      -4.26250000      -1.45560000
H        2.57770000      -3.01060000      -2.21190000
H        2.37680000      -1.72440000      -0.27600000
