21
Properties=species:S:1:pos:R:3 gdb_90998=T pbc="F F F"
C       -0.15730000       1.54900000      -0.00860000
C        0.05020000       0.03820000       0.00400000
O        0.85400000      -0.37390000      -1.12760000
C        2.10480000      -0.77250000      -0.60880000
C        2.18540000      -2.14320000       0.16630000
C        3.17810000      -1.42540000       1.11950000
C        2.31210000      -0.18470000       0.80710000
C        0.84040000      -0.52910000       1.19810000
C        0.88770000      -2.07780000       0.99480000
H        0.78810000       2.08690000       0.10700000
H       -0.60680000       1.85650000      -0.95720000
H       -0.82840000       1.85080000       0.80320000
H       -0.92430000      -0.45850000      -0.08600000
H        2.88850000      -0.61290000      -1.34980000
H        2.43140000      -3.08360000      -0.32650000
H        3.23390000      -1.78180000       2.15140000
H        4.18520000      -1.33090000       0.70510000
H        2.65760000       0.83360000       0.97990000
H        0.49230000      -0.18780000       2.17350000
H        0.00970000      -2.44970000       0.46000000
H        0.97880000      -2.63210000       1.93340000
