17
Properties=species:S:1:pos:R:3 gdb_29882=T pbc="F F F"
C       -0.03220000       1.48650000       0.00110000
N       -0.00780000       0.02970000       0.03150000
C       -0.03060000      -0.68260000      -1.14340000
N       -0.01380000      -1.95780000      -1.27220000
C        0.03260000      -2.76470000      -0.10820000
O        0.05160000      -3.97770000      -0.18360000
C        0.05880000      -2.03730000       1.16090000
C        0.03890000      -0.68700000       1.22330000
C        0.06450000       0.08310000       2.51110000
H        0.86410000       1.91090000       0.46290000
H       -0.06780000       1.81050000      -1.03990000
H       -0.91340000       1.88220000       0.51460000
H       -0.06670000      -0.05620000      -2.03510000
H        0.09530000      -2.62140000       2.07220000
H        0.10030000      -0.61250000       3.35010000
H        0.93900000       0.74010000       2.57590000
H       -0.82530000       0.71180000       2.62790000
