23
Properties=species:S:1:pos:R:3 gdb_88167=T pbc="F F F"
C       -0.04980000       1.65780000       0.15050000
C       -0.19720000       0.16520000       0.30730000
O        0.86550000      -0.65410000      -0.19900000
C        0.63260000      -0.64440000       1.21720000
C        1.70920000      -0.02910000       2.12330000
C        2.00440000      -1.11030000       3.18200000
C        0.67310000      -1.87030000       3.30130000
C        0.18420000      -1.97660000       1.84500000
C       -1.28960000      -2.34030000       1.68500000
H        0.95440000       1.99210000       0.42030000
H       -0.23960000       1.95190000      -0.88710000
H       -0.77460000       2.18250000       0.78330000
H       -1.19010000      -0.21380000       0.06010000
H        2.58700000       0.26360000       1.54260000
H        1.31990000       0.87460000       2.60710000
H        2.78400000      -1.79050000       2.81970000
H        2.35260000      -0.69320000       4.13060000
H        0.77170000      -2.84690000       3.78410000
H       -0.04410000      -1.28480000       3.89280000
H        0.78600000      -2.74980000       1.34600000
H       -1.93880000      -1.58890000       2.14810000
H       -1.56750000      -2.42720000       0.62980000
H       -1.50300000      -3.30370000       2.15990000
