18
Properties=species:S:1:pos:R:3 gdb_46587=T pbc="F F F"
O       -0.25750000       0.27260000       0.90590000
C       -0.11760000       1.23610000       0.19330000
C       -1.24100000       1.85540000      -0.69660000
C       -0.96010000       3.38500000      -0.72560000
C        0.52050000       3.47190000      -0.40210000
C        1.35080000       4.23740000       0.64840000
C        1.91390000       2.86310000       1.17460000
C        1.04410000       2.15540000       0.12610000
N        1.43950000       2.68580000      -1.20200000
H       -1.23690000       1.40140000      -1.69410000
H       -2.20520000       1.60720000      -0.24960000
H       -1.22830000       3.85540000      -1.67770000
H       -1.53870000       3.88720000       0.05640000
H        2.07680000       4.94690000       0.24600000
H        0.72240000       4.73680000       1.38870000
H        2.98790000       2.70350000       1.06780000
H        1.60860000       2.64170000       2.19820000
H        0.93620000       2.19050000      -1.93450000
