18
Properties=species:S:1:pos:R:3 gdb_32117=T pbc="F F F"
C        0.01250000       1.44210000      -0.07030000
N       -0.11650000       0.00820000       0.09720000
C        0.58250000      -0.67540000       1.07930000
C        1.19890000      -0.02160000       2.16080000
N        1.83410000      -0.67460000       3.13410000
C        1.90110000      -1.99840000       3.08730000
C        1.33170000      -2.75910000       2.05070000
N        1.48800000      -4.14520000       2.01490000
C        0.66400000      -2.07340000       1.04040000
H        1.05330000       1.77570000      -0.20250000
H       -0.56240000       1.74490000      -0.94830000
H       -0.40290000       1.97090000       0.79430000
H       -0.23370000      -0.50600000      -0.76150000
H        1.17370000       1.05970000       2.24320000
H        2.43150000      -2.49710000       3.89690000
H        1.66850000      -4.56600000       2.91520000
H        0.76170000      -4.64180000       1.51910000
H        0.20460000      -2.62050000       0.22020000
