21
Properties=species:S:1:pos:R:3 gdb_95591=T pbc="F F F"
O        0.66000000       0.63750000       0.90380000
C        0.17240000      -0.32170000      -0.04850000
C       -1.33890000      -0.38950000       0.19420000
C       -2.05520000      -1.63790000      -0.34050000
C       -2.30050000      -1.81770000      -1.81640000
C       -2.06990000      -1.00780000      -2.84850000
C       -1.42890000       0.36760000      -2.82860000
C        0.06370000       0.33740000      -2.55650000
C        0.69000000       0.03310000      -1.42130000
H        1.55000000       0.89320000       0.64140000
H        0.58930000      -1.31370000       0.20700000
H       -1.44480000      -0.39710000       1.28440000
H       -1.81950000       0.53260000      -0.13880000
H       -1.51740000      -2.52840000       0.01950000
H       -3.03470000      -1.69770000       0.15700000
H       -2.76000000      -2.77870000      -2.04770000
H       -2.34370000      -1.37380000      -3.83550000
H       -1.58920000       0.83790000      -3.80270000
H       -1.93130000       1.01480000      -2.10540000
H        0.69250000       0.56290000      -3.41550000
H        1.78200000       0.04060000      -1.45360000
