19
Properties=species:S:1:pos:R:3 gdb_85257=T pbc="F F F"
C        0.79810000       1.27650000      -0.02120000
C       -0.13880000       0.07450000      -0.03400000
C        0.07910000      -0.88700000      -1.22060000
C        1.08380000      -1.86860000      -0.64670000
C        1.62100000      -3.06030000      -1.33310000
N        2.50280000      -1.90810000      -1.07570000
C        0.84550000      -1.84140000       0.83420000
N        1.24750000      -2.70520000       1.66030000
O        0.09690000      -0.74010000       1.14120000
H        1.84150000       0.95750000      -0.10970000
H        0.56660000       1.94850000      -0.85410000
H        0.68770000       1.83350000       0.91280000
H       -1.17820000       0.40720000       0.03400000
H       -0.85720000      -1.39710000      -1.47060000
H        0.43510000      -0.37280000      -2.11730000
H        1.84320000      -3.93790000      -0.73440000
H        1.29100000      -3.25230000      -2.35120000
H        2.59810000      -1.36120000      -1.92980000
H        0.97500000      -2.45390000       2.61160000
