16
Properties=species:S:1:pos:R:3 gdb_125746=T pbc="F F F"
C       -0.04660000       1.49450000       0.00510000
C       -0.06440000       0.00280000       0.03050000
N       -0.18470000      -0.68910000      -1.07250000
O       -0.16400000      -2.03600000      -0.68450000
C       -0.03150000      -2.11810000       0.64480000
C        0.01150000      -3.47030000       1.25580000
C        0.03930000      -0.85750000       1.17820000
C        0.18040000      -0.48550000       2.53130000
C        0.30080000      -0.14970000       3.68210000
H        0.88710000       1.87690000       0.42970000
H       -0.14490000       1.85420000      -1.02040000
H       -0.86620000       1.90090000       0.60620000
H        0.85210000      -4.05050000       0.86140000
H        0.12070000      -3.38070000       2.33800000
H       -0.90550000      -4.02710000       1.03670000
H        0.40690000       0.14370000       4.69690000
