16
Properties=species:S:1:pos:R:3 gdb_7432=T pbc="F F F"
C        0.39680000       1.26040000       0.08680000
N        0.06630000      -0.15300000      -0.04830000
C        0.09880000      -0.90350000       1.20210000
C       -0.23080000      -0.62230000      -1.28490000
O       -0.23200000       0.09140000      -2.28520000
C       -0.59230000      -2.12830000      -1.49090000
N       -0.84540000      -2.34610000      -2.79750000
O       -0.64560000      -2.99120000      -0.63140000
H        1.40580000       1.37170000       0.50160000
H        0.34690000       1.73320000      -0.89120000
H       -0.30910000       1.74700000       0.77050000
H       -0.15670000      -1.94260000       1.02600000
H        1.10120000      -0.83590000       1.64350000
H       -0.61010000      -0.46060000       1.91300000
H       -0.77460000      -1.56610000      -3.43190000
H       -1.09530000      -3.27060000      -3.10260000
