21
Properties=species:S:1:pos:R:3 gdb_109541=T pbc="F F F"
C        0.42500000       1.19960000       0.22120000
O       -0.21500000       0.00690000      -0.21380000
C        0.44460000      -0.58880000      -1.29550000
C        1.44100000      -1.69310000      -0.96460000
C        2.73930000      -1.84890000      -1.71070000
O        1.58270000      -1.98310000       0.39990000
C        0.10940000      -2.03440000      -1.61780000
C       -0.96570000      -2.77820000      -0.86190000
O        0.21020000      -2.38190000      -2.97740000
H        1.46160000       1.01310000       0.53140000
H        0.42800000       1.95770000      -0.57460000
H       -0.14710000       1.57790000       1.07140000
H        0.64920000       0.07490000      -2.13670000
H        3.48820000      -1.15420000      -1.31730000
H        3.12400000      -2.86690000      -1.58910000
H        2.59790000      -1.66500000      -2.77640000
H        0.93570000      -1.43890000       0.86800000
H       -0.99780000      -2.49720000       0.19070000
H       -1.95180000      -2.56500000      -1.29210000
H       -0.78730000      -3.85540000      -0.93040000
H       -0.59130000      -2.07710000      -3.41910000
