20
Properties=species:S:1:pos:R:3 gdb_92054=T pbc="F F F"
C       -0.08080000       1.58460000      -0.02940000
C        0.11970000       0.06740000      -0.03650000
C        0.99440000      -0.43380000      -1.20390000
C        1.07260000      -1.95090000      -1.19460000
N        2.38670000      -2.55460000      -0.91520000
C        1.33570000      -2.59300000       0.12130000
C        1.53420000      -1.67910000       1.31820000
C        0.64190000      -0.43300000       1.31890000
O        0.37270000       0.13280000       2.35310000
H        0.88300000       2.10390000       0.00870000
H       -0.60410000       1.91080000      -0.93320000
H       -0.65730000       1.88930000       0.84560000
H       -0.86770000      -0.41200000      -0.13990000
H        0.58700000      -0.06790000      -2.15210000
H        2.00640000      -0.02360000      -1.11560000
H        0.41430000      -2.47280000      -1.88520000
H        2.45700000      -3.46110000      -1.37050000
H        0.86460000      -3.55130000       0.32300000
H        1.38830000      -2.19370000       2.27090000
H        2.57030000      -1.31520000       1.31200000
