21
Properties=species:S:1:pos:R:3 gdb_109149=T pbc="F F F"
C       -0.03140000       1.50460000       0.02180000
C        0.06110000      -0.02110000       0.00180000
O       -1.25390000      -0.58920000      -0.01420000
C        0.89640000      -0.58090000      -1.18990000
C        1.62570000      -1.75880000      -0.59930000
C        1.53960000      -1.79090000       0.73150000
C        2.14870000      -2.81060000       1.64610000
O        2.74720000      -3.90540000       0.97660000
C        0.73510000      -0.62580000       1.26090000
H        0.95960000       1.96430000       0.08960000
H       -0.50730000       1.87700000      -0.89390000
H       -0.63070000       1.83810000       0.87430000
H       -1.69580000      -0.27910000      -0.81200000
H        0.23820000      -0.85300000      -2.02520000
H        1.59960000       0.16840000      -1.58020000
H        2.18410000      -2.47040000      -1.19630000
H        2.94900000      -2.35240000       2.24330000
H        1.38780000      -3.14860000       2.37170000
H        2.06160000      -4.31720000       0.43990000
H        1.38290000       0.10620000       1.76160000
H       -0.03400000      -0.92010000       1.98340000
