14
Properties=species:S:1:pos:R:3 gdb_2385=T pbc="F F F"
N        0.02150000       1.23340000       0.27880000
C        0.00700000      -0.04760000      -0.17510000
O        1.03530000      -0.60120000      -0.56360000
C       -1.30550000      -0.73990000      -0.15130000
C       -1.59570000      -1.72020000      -1.29370000
C       -1.26080000      -2.26620000       0.05090000
O       -0.07400000      -2.91630000       0.31530000
H        0.90100000       1.72260000       0.30100000
H       -0.80990000       1.70750000       0.58270000
H       -2.14370000      -0.19700000       0.27290000
H       -2.61680000      -1.76890000      -1.65530000
H       -0.82430000      -1.78520000      -2.05360000
H       -2.07110000      -2.67730000       0.64530000
H        0.63520000      -2.35910000      -0.05680000
