20
Properties=species:S:1:pos:R:3 gdb_67593=T pbc="F F F"
C       -0.02650000       1.47500000       0.00630000
C        0.02230000      -0.02710000       0.00800000
C        1.22830000      -0.86920000      -0.35150000
C        0.77730000      -1.98850000      -1.27300000
C       -0.73320000      -1.98460000      -1.10030000
C       -1.26620000      -2.00030000       0.28530000
C       -0.26100000      -2.01910000       1.42560000
C        0.68280000      -0.88530000       1.06630000
N       -1.19270000      -0.71840000      -0.46730000
H        0.91640000       1.89280000       0.37280000
H       -0.20080000       1.86120000      -1.00350000
H       -0.83440000       1.84250000       0.64780000
H        2.19680000      -0.40780000      -0.51370000
H        1.04370000      -1.76330000      -2.31170000
H        1.22130000      -2.96080000      -1.02570000
H       -1.35070000      -2.35700000      -1.91320000
H       -2.26650000      -2.38400000       0.46710000
H       -0.76100000      -1.81650000       2.37920000
H        0.24170000      -2.98970000       1.52050000
H        1.28940000      -0.43460000       1.84470000
