23
Properties=species:S:1:pos:R:3 gdb_80449=T pbc="F F F"
C       -0.14100000       1.55390000       0.06340000
C        0.04150000       0.05350000       0.07270000
C        1.35820000      -0.64510000      -0.19410000
C        2.66500000       0.13190000      -0.04050000
C        2.70190000       0.51930000       1.42900000
C        3.80030000       1.36490000       1.99230000
C        1.63900000       0.02550000       2.07470000
C        0.71430000      -0.74360000       1.18720000
C        0.05810000      -1.99560000       1.72330000
H        0.67530000       2.06950000       0.57440000
H       -0.18960000       1.93370000      -0.96390000
H       -1.07430000       1.83610000       0.56350000
H       -0.80490000      -0.47700000      -0.36160000
H        1.34520000      -1.49630000      -0.86670000
H        3.53400000      -0.48460000      -0.30960000
H        2.71190000       1.01770000      -0.69020000
H        3.83660000       2.35100000       1.51120000
H        3.67820000       1.52010000       3.06790000
H        4.78240000       0.90360000       1.82360000
H        1.44030000       0.16750000       3.13290000
H       -0.63930000      -1.76380000       2.53760000
H       -0.51030000      -2.50950000       0.94140000
H        0.80150000      -2.69960000       2.11520000
