17
Properties=species:S:1:pos:R:3 gdb_97368=T pbc="F F F"
N        0.08610000       0.35620000      -0.92570000
C       -0.21430000      -0.85410000      -0.25540000
N       -1.14830000      -0.67820000       0.79160000
H       -1.94450000      -0.12270000       0.49220000
C       -1.59280000      -1.95360000       1.34160000
C       -2.32920000      -2.78600000       0.30020000
O       -3.65220000      -2.27180000       0.19240000
C       -1.69240000      -2.70430000      -1.09750000
O       -0.66930000      -1.87150000      -1.30210000
O       -2.16020000      -3.35250000      -2.00360000
H        0.77930000       0.19210000      -1.64710000
H       -0.74110000       0.72950000      -1.38310000
H        0.70380000      -1.30490000       0.13240000
H       -0.71200000      -2.49790000       1.70160000
H       -2.24910000      -1.77630000       2.19710000
H       -2.34420000      -3.84820000       0.58580000
H       -4.03310000      -2.67160000      -0.60000000
