19
Properties=species:S:1:pos:R:3 gdb_100618=T pbc="F F F"
C        0.08050000       1.55940000       0.02840000
C       -0.00760000       0.03050000      -0.01310000
C       -1.44930000      -0.50960000      -0.01700000
C       -2.22310000      -0.12760000      -1.28400000
C       -1.43190000      -2.06990000       0.14390000
C       -0.72720000      -2.49490000       1.36240000
N       -0.15860000      -2.80900000       2.31690000
C       -2.78650000      -2.64090000       0.13790000
N       -3.85890000      -3.06810000       0.11460000
H        1.12430000       1.87750000       0.10170000
H       -0.34140000       2.02340000      -0.86760000
H       -0.45020000       1.96180000       0.89810000
H        0.51530000      -0.34570000      -0.90340000
H        0.52520000      -0.37550000       0.85340000
H       -1.97680000      -0.11060000       0.85790000
H       -1.71650000      -0.50360000      -2.18080000
H       -3.24000000      -0.52800000      -1.27380000
H       -2.29640000       0.95830000      -1.37310000
H       -0.89230000      -2.49430000      -0.71420000
