16
Properties=species:S:1:pos:R:3 gdb_52376=T pbc="F F F"
O        0.91510000       1.53640000       1.75840000
C        0.42800000       1.76580000       0.67000000
N        1.05760000       1.55470000      -0.51330000
C        2.39200000       0.97480000      -0.58840000
C        3.47950000       1.94560000      -0.11590000
C        4.87360000       1.37620000      -0.28820000
O        5.08870000       0.29310000      -0.79060000
C        5.95490000       2.22430000       0.18670000
C        6.83420000       2.94240000       0.58640000
H       -0.59250000       2.17640000       0.53490000
H        0.56750000       1.77370000      -1.36480000
H        2.42350000       0.07270000       0.02870000
H        2.57740000       0.66950000      -1.61980000
H        3.42710000       2.89710000      -0.66180000
H        3.32250000       2.19560000       0.93940000
H        7.62300000       3.56320000       0.93670000
