22
Properties=species:S:1:pos:R:3 gdb_6736=T pbc="F F F"
C       -0.26580000       1.57090000       0.08750000
C        0.20060000       0.11580000      -0.10240000
C        0.88280000      -0.42410000       1.07020000
C        1.44610000      -0.83800000       2.05210000
C        2.11510000      -1.36900000       3.23540000
C        2.04710000      -2.91160000       3.36050000
C        2.74510000      -3.60200000       2.18390000
C        2.63960000      -3.35760000       4.70220000
H        0.58420000       2.22690000       0.29460000
H       -0.76920000       1.93250000      -0.81430000
H       -0.96270000       1.64900000       0.92640000
H       -0.66450000      -0.51480000      -0.34520000
H        0.86670000       0.05760000      -0.97320000
H        3.17080000      -1.06110000       3.23350000
H        1.67290000      -0.91940000       4.13450000
H        0.98560000      -3.19080000       3.34070000
H        2.64800000      -4.69030000       2.25380000
H        2.31910000      -3.28060000       1.22950000
H        3.81590000      -3.36400000       2.17170000
H        2.11570000      -2.89700000       5.54660000
H        2.57410000      -4.44410000       4.81900000
H        3.69840000      -3.08060000       4.77490000
