20
Properties=species:S:1:pos:R:3 gdb_90071=T pbc="F F F"
C       -0.10950000       1.33310000      -0.53660000
C        0.15980000      -0.11380000      -0.17770000
O        1.28260000      -0.72100000      -0.96690000
C        1.97800000      -0.84760000       0.28510000
C        2.70850000      -1.64080000       1.41500000
N        2.04760000      -0.41350000       2.14190000
C        2.57900000       0.39980000       0.97010000
C        0.79030000      -0.74060000       1.16380000
C       -0.07460000      -1.86520000       1.70110000
H        0.77950000       1.96170000      -0.49140000
H       -0.49990000       1.38440000      -1.55850000
H       -0.86920000       1.74650000       0.13520000
H       -0.74550000      -0.69850000      -0.37170000
H        2.31370000      -2.61190000       1.70860000
H        3.79900000      -1.60510000       1.47900000
H        3.66610000       0.50790000       0.96870000
H        2.08520000       1.36290000       0.86660000
H        0.35940000      -2.32910000       2.58900000
H       -1.05380000      -1.46720000       1.99090000
H       -0.24790000      -2.64470000       0.94980000
