22
Properties=species:S:1:pos:R:3 gdb_15425=T pbc="F F F"
C       -0.24510000       1.53030000       0.04980000
C       -0.19140000       0.01090000      -0.12850000
C        0.92440000      -0.44460000      -1.07950000
C        0.97510000      -1.95220000      -1.23590000
C        0.13440000      -2.66560000      -2.26810000
C        1.63820000      -2.66040000      -2.39690000
C        2.31230000      -1.92760000      -3.52630000
O        2.32020000      -2.78770000      -4.66070000
H        0.69790000       1.91550000       0.45390000
H       -0.42400000       2.03530000      -0.90610000
H       -1.04560000       1.82480000       0.73570000
H       -0.04880000      -0.46880000       0.84900000
H       -1.15460000      -0.35390000      -0.50670000
H        0.77610000       0.03350000      -2.05540000
H        1.88950000      -0.07650000      -0.70300000
H        1.07780000      -2.47200000      -0.28520000
H       -0.36520000      -3.59050000      -2.00230000
H       -0.42020000      -2.04880000      -2.96960000
H        2.13920000      -3.59330000      -2.15180000
H        1.78020000      -0.99050000      -3.74910000
H        3.34050000      -1.65620000      -3.23530000
H        2.82040000      -2.35320000      -5.35800000
