17
Properties=species:S:1:pos:R:3 gdb_73527=T pbc="F F F"
O       -0.06800000       1.42050000       0.14910000
C       -0.05170000      -0.01450000       0.11220000
C        0.90480000      -0.60130000       1.16360000
C        2.24470000      -0.66980000       0.36010000
N        1.87180000      -0.86100000      -1.06490000
C        0.64430000      -0.54180000      -1.14250000
N       -0.30570000      -0.73030000      -2.12800000
C       -1.54540000      -0.82380000      -1.44270000
C       -1.46590000      -0.47090000      -0.15080000
H        0.84530000       1.72970000       0.12370000
H        0.95550000       0.01030000       2.06770000
H        0.59750000      -1.61350000       1.44250000
H        2.84710000       0.24150000       0.48090000
H        2.87950000      -1.50260000       0.67590000
H       -0.10140000      -1.33310000      -2.91130000
H       -2.41670000      -1.13570000      -2.00300000
H       -2.29770000      -0.36880000       0.52940000
