23
Properties=species:S:1:pos:R:3 gdb_118715=T pbc="F F F"
C        0.00240000       1.65590000       0.25380000
C        0.00230000       0.14410000       0.10310000
C       -1.30390000      -0.43200000      -0.43550000
C       -1.65690000       0.01640000      -1.85160000
O       -2.84430000      -0.66760000      -2.22890000
C        1.22250000      -0.64160000      -0.32320000
C        2.52840000      -0.04560000       0.21940000
C        1.96980000      -0.18440000       1.67330000
C        0.67090000      -0.77000000       1.10540000
H        0.90440000       2.02970000       0.74210000
H       -0.06980000       2.15820000      -0.71710000
H       -0.85430000       1.97980000       0.85670000
H       -1.25210000      -1.52700000      -0.43990000
H       -2.13400000      -0.16140000       0.22940000
H       -1.80550000       1.10650000      -1.88350000
H       -0.82510000      -0.22010000      -2.53450000
H       -3.09620000      -0.36880000      -3.10730000
H        1.16500000      -1.35750000      -1.13610000
H        3.38880000      -0.69620000       0.04860000
H        2.78710000       0.96070000      -0.12530000
H        2.53310000      -0.91720000       2.25550000
H        1.88140000       0.72890000       2.27060000
H        0.12310000      -1.59440000       1.54890000
