18
Properties=species:S:1:pos:R:3 gdb_7408=T pbc="F F F"
C       -0.02630000       1.72270000       0.66710000
C       -0.08290000       0.28660000       0.11730000
C        0.69060000      -0.65050000       1.05540000
C        2.18650000      -0.75980000       0.82940000
O        0.13000000      -1.25170000       1.94310000
C       -1.53640000      -0.18150000      -0.07760000
C       -1.73880000      -1.59980000      -0.57270000
O       -2.46400000       0.56170000       0.13450000
H        1.00390000       2.08410000       0.72890000
H       -0.59480000       2.39140000       0.01850000
H       -0.47530000       1.76480000       1.66220000
H        0.40240000       0.25920000      -0.86900000
H        2.64640000       0.22790000       0.72480000
H        2.64920000      -1.30510000       1.65260000
H        2.37200000      -1.29600000      -0.10940000
H       -1.03880000      -1.84850000      -1.37750000
H       -1.54770000      -2.29080000       0.25430000
H       -2.76620000      -1.72470000      -0.91670000
