20
Properties=species:S:1:pos:R:3 gdb_113405=T pbc="F F F"
C        0.06040000       1.24900000      -0.46620000
O       -0.11530000       0.20720000       0.47400000
C       -1.33030000      -0.45540000       0.33080000
C       -1.46400000      -1.57600000      -0.71190000
C       -1.37810000      -1.86840000       0.74800000
C       -0.49530000      -2.75780000       1.62160000
C       -1.41550000      -2.26460000       2.76200000
N       -2.43250000      -2.52510000       1.62650000
C       -1.60610000      -3.80810000       1.38180000
H        1.03600000       1.69950000      -0.26900000
H        0.03820000       0.87180000      -1.49860000
H       -0.71680000       2.02110000      -0.36310000
H       -2.21570000       0.16210000       0.49660000
H       -2.41790000      -1.68700000      -1.21800000
H       -0.58820000      -1.78940000      -1.31750000
H        0.59210000      -2.87360000       1.60370000
H       -1.55950000      -2.92260000       3.62340000
H       -1.35100000      -1.21530000       3.05640000
H       -1.72310000      -4.21380000       0.37450000
H       -1.76320000      -4.57170000       2.14840000
