25
Properties=species:S:1:pos:R:3 gdb_118580=T pbc="F F F"
C       -0.02700000       1.54860000       0.00990000
C        0.01080000       0.01840000       0.00730000
C        0.74340000      -0.56130000       1.22130000
C        0.76070000      -2.09310000       1.24640000
C        1.56870000      -2.60970000       2.43750000
O        1.80450000      -3.99560000       2.29370000
C        2.50680000      -4.54590000       3.38230000
O       -0.58990000      -2.52760000       1.29900000
C       -0.84160000      -3.81530000       0.77030000
H        0.98320000       1.97370000       0.00430000
H       -0.55460000       1.93550000      -0.86760000
H       -0.53940000       1.93040000       0.90020000
H       -1.00690000      -0.38360000      -0.01030000
H        0.49950000      -0.33500000      -0.91080000
H        1.77810000      -0.19620000       1.24010000
H        0.26550000      -0.20400000       2.14340000
H        1.23560000      -2.47120000       0.32540000
H        2.52870000      -2.06890000       2.50060000
H        1.00750000      -2.40570000       3.36450000
H        1.94960000      -4.43740000       4.32620000
H        2.65120000      -5.60940000       3.17700000
H        3.49290000      -4.07160000       3.51160000
H       -0.49400000      -3.89550000      -0.27140000
H       -0.35970000      -4.60420000       1.35680000
H       -1.92600000      -3.95530000       0.78790000
