17
Properties=species:S:1:pos:R:3 gdb_51028=T pbc="F F F"
O       -0.43720000       0.43720000       0.61330000
C        0.12000000       0.96380000      -0.31470000
C        1.27580000       1.93780000      -0.16650000
C        1.22560000       3.07350000      -1.19760000
C        2.53540000       3.90030000      -1.36180000
C        2.57500000       3.30560000      -2.78140000
O        1.36980000       2.54250000      -2.54810000
C        0.00630000       3.86320000      -1.05480000
C       -0.99760000       4.51040000      -0.92050000
H       -0.16740000       0.74670000      -1.36520000
H        1.28660000       2.32850000       0.85500000
H        2.20460000       1.37560000      -0.33280000
H        2.40360000       4.97970000      -1.30150000
H        3.34220000       3.59030000      -0.69600000
H        2.44520000       4.02580000      -3.59680000
H        3.42780000       2.65690000      -3.01030000
H       -1.88910000       5.07740000      -0.80830000
