16
Properties=species:S:1:pos:R:3 gdb_43000=T pbc="F F F"
O       -0.10540000       0.30980000      -0.99500000
C       -0.06560000       1.31150000      -0.33570000
C       -1.21620000       2.03120000       0.28630000
C       -1.02510000       2.39910000       1.72820000
N       -0.80340000       3.39020000       0.68960000
C        0.62690000       3.55420000       0.32880000
C        1.21780000       2.16740000      -0.05560000
C        2.06570000       1.54690000       0.94900000
C        2.75510000       1.03890000       1.79350000
H       -2.20670000       1.88120000      -0.12780000
H       -1.91560000       2.55430000       2.32970000
H       -0.17280000       1.98280000       2.25870000
H        0.66520000       4.22160000      -0.53630000
H        1.16270000       4.02740000       1.15380000
H        1.76490000       2.22790000      -1.00140000
H        3.37210000       0.58410000       2.52860000
