14
Properties=species:S:1:pos:R:3 gdb_80164=T pbc="F F F"
O        0.14210000       1.38090000       0.00420000
C        0.00170000       0.00960000       0.01920000
C       -0.46570000      -0.75340000       1.21960000
N       -1.14470000       0.04030000       2.21030000
C       -2.38440000       0.51640000       1.84230000
O       -3.12420000       1.20890000       2.49360000
C       -2.60100000      -0.00160000       0.38910000
O       -3.61670000       0.14680000      -0.23330000
C       -1.36320000      -0.72920000      -0.01130000
H       -0.20960000       1.73950000       0.82890000
H        0.74870000      -0.46560000      -0.60890000
H        0.02250000      -1.65630000       1.56960000
H       -0.72440000       0.29510000       3.09080000
H       -1.45680000      -1.57080000      -0.68470000
