20
Properties=species:S:1:pos:R:3 gdb_97398=T pbc="F F F"
C       -0.40790000       1.01560000       0.06880000
N        0.48660000      -0.11240000      -0.08300000
C        0.62000000      -0.87910000       0.90420000
O        1.43300000      -1.95760000       0.83240000
C        1.57280000      -2.69630000       2.02590000
C        0.51020000      -3.62060000       2.53910000
C       -0.26230000      -4.25980000       1.37820000
C        1.07980000      -4.78640000       0.77910000
C        1.84370000      -4.15440000       1.94990000
H        0.14060000       1.94680000      -0.11440000
H       -1.20090000       0.96170000      -0.68600000
H       -0.88160000       1.08380000       1.06230000
H        0.11320000      -0.75990000       1.87410000
H        2.13110000      -2.16330000       2.79320000
H        0.17690000      -3.57670000       3.56990000
H       -0.91080000      -5.07210000       1.71150000
H       -0.84740000      -3.57670000       0.75610000
H        1.13470000      -5.87630000       0.78430000
H        1.35290000      -4.41710000      -0.21180000
H        2.69760000      -4.59210000       2.45340000
