18
Properties=species:S:1:pos:R:3 gdb_97060=T pbc="F F F"
C        0.65570000       1.43860000      -0.17680000
N        0.47190000      -0.00500000      -0.13000000
C        0.27360000      -0.55520000       0.98820000
C        0.05740000      -2.04510000       1.12410000
N        0.67360000      -2.62910000       2.31210000
C        0.58950000      -1.91680000       3.36470000
N        0.98040000      -2.39580000       4.59750000
C       -0.04070000      -0.54100000       3.35650000
O        0.26430000       0.16190000       2.15690000
H        1.66130000       1.71670000       0.16580000
H        0.55040000       1.77700000      -1.21070000
H       -0.06190000       1.98360000       0.44980000
H       -1.02630000      -2.24810000       1.13240000
H        0.45390000      -2.51970000       0.22600000
H        1.48430000      -3.27120000       4.54900000
H        1.37910000      -1.72980000       5.24190000
H       -1.13000000      -0.64360000       3.47230000
H        0.31880000       0.08710000       4.17660000
