17
Properties=species:S:1:pos:R:3 gdb_88344=T pbc="F F F"
O        0.18430000       1.18440000      -0.44140000
C        0.01410000      -0.14960000      -0.14290000
C       -0.25830000      -0.64090000       1.23410000
C       -1.38010000      -0.72370000       0.19190000
C       -2.47820000       0.26930000       0.30670000
O       -2.28730000       1.41390000       0.68130000
N       -3.72520000      -0.21480000      -0.07000000
C       -4.95260000       0.44720000      -0.12090000
N       -5.12920000       1.66220000       0.18690000
H       -0.52900000       1.66980000       0.01130000
H        0.62190000      -0.77250000      -0.79170000
H        0.17510000      -1.57820000       1.56510000
H       -0.39950000       0.10920000       2.00500000
H       -1.62710000      -1.70380000      -0.20320000
H       -3.75300000      -1.18330000      -0.34510000
H       -5.73440000      -0.24260000      -0.46480000
H       -6.11130000       1.90500000       0.06500000
