13
Properties=species:S:1:pos:R:3 gdb_4668=T pbc="F F F"
O        0.09050000       1.33650000       0.18590000
C        0.06960000      -0.00390000      -0.00740000
C        0.08980000      -0.81050000      -1.11270000
C        0.04600000      -2.16440000      -0.62610000
C        0.04750000      -3.38430000      -1.42210000
O        0.00950000      -4.51170000      -0.97340000
C        0.00130000      -2.11140000       0.75370000
N        0.01620000      -0.79270000       1.11570000
H        0.12900000       1.76980000      -0.67210000
H        0.13050000      -0.49430000      -2.14370000
H        0.08760000      -3.21180000      -2.52220000
H       -0.03910000      -2.90580000       1.47910000
H       -0.00760000      -0.42950000       2.05400000
