15
Properties=species:S:1:pos:R:3 gdb_18099=T pbc="F F F"
C        0.00870000       1.50600000       0.01010000
O        1.40400000       1.88350000      -0.00130000
C        2.12140000       0.74220000      -0.01420000
N        3.38080000       0.57400000      -0.02720000
C        3.58660000      -0.88930000      -0.03700000
C        2.17730000      -1.60830000      -0.02750000
C        1.25370000      -0.43050000      -0.01220000
C       -0.01030000      -0.01050000       0.00210000
H       -0.46000000       1.93800000       0.90390000
H       -0.47700000       1.94750000      -0.87000000
H        4.16890000      -1.16730000      -0.92260000
H        4.18550000      -1.17670000       0.83440000
H        2.03390000      -2.24020000      -0.90920000
H        2.05060000      -2.24980000       0.84990000
H       -0.93060000      -0.57910000       0.00790000
