13
Properties=species:S:1:pos:R:3 gdb_420=T pbc="F F F"
C       -0.08330000       1.57750000       0.02180000
C        0.00460000       0.05880000      -0.02890000
C        0.78920000      -0.59750000      -1.20830000
N        1.69530000      -1.16080000      -0.20460000
C        1.08100000      -0.59050000       0.88440000
O        1.32310000      -0.60030000       2.06140000
H        0.89360000       2.03660000      -0.16310000
H       -0.78640000       1.96120000      -0.72440000
H       -0.42310000       1.90290000       1.00940000
H       -0.97720000      -0.39770000       0.12680000
H        0.23830000      -1.34460000      -1.78840000
H        1.26430000       0.11750000      -1.88890000
H        2.52990000      -1.72250000      -0.28460000
