23
Properties=species:S:1:pos:R:3 gdb_100332=T pbc="F F F"
C       -0.15130000       1.54470000       0.13350000
C       -0.03810000       0.02150000       0.00790000
C        0.69090000      -0.51980000      -1.24610000
C        0.62250000      -2.05660000      -1.23440000
C        0.03990000       0.00520000      -2.53680000
O       -1.34090000      -0.32620000      -2.52340000
C        2.17890000      -0.06180000      -1.28440000
C        2.96660000      -0.47050000      -0.12790000
C        3.61410000      -0.80590000       0.82830000
H        0.82670000       2.03690000       0.14770000
H       -0.73960000       1.97650000      -0.68180000
H       -0.65510000       1.80660000       1.06930000
H        0.47980000      -0.37450000       0.88850000
H       -1.04500000      -0.40690000       0.01480000
H       -0.41650000      -2.38930000      -1.29020000
H        1.16020000      -2.48130000      -2.09020000
H        1.07320000      -2.45890000      -0.32300000
H        0.18020000       1.09470000      -2.61280000
H        0.54560000      -0.45030000      -3.40400000
H       -1.73180000      -0.02390000      -3.34790000
H        2.64720000      -0.46410000      -2.19290000
H        2.22760000       1.03030000      -1.37920000
H        4.19160000      -1.10010000       1.66920000
