20
Properties=species:S:1:pos:R:3 gdb_63832=T pbc="F F F"
C       -0.23250000       1.58710000       0.01390000
C       -0.02810000       0.08030000      -0.02160000
C       -1.35040000      -0.66120000      -0.19070000
C        1.10890000      -0.46420000      -0.95700000
C        1.70280000      -1.20270000       0.26920000
C        2.87840000      -0.57230000       1.04830000
C        1.77750000       0.24470000       1.76620000
O        1.75420000       1.19610000       2.49320000
N        0.72380000      -0.50070000       1.17290000
H        0.70990000       2.12820000       0.12440000
H       -0.70980000       1.91260000      -0.91670000
H       -0.88010000       1.87270000       0.84820000
H       -1.82220000      -0.38720000      -1.14090000
H       -1.19960000      -1.74470000      -0.18260000
H       -2.03720000      -0.40920000       0.62280000
H        0.77840000      -1.09740000      -1.78330000
H        1.75830000       0.32240000      -1.35230000
H        1.65020000      -2.29280000       0.25080000
H        3.43940000      -1.25940000       1.68690000
H        3.58150000       0.04110000       0.47990000
