19
Properties=species:S:1:pos:R:3 gdb_82756=T pbc="F F F"
C       -0.02480000       1.51600000       0.00550000
C        0.07520000      -0.00400000       0.04460000
C        1.06410000      -0.63140000      -0.96280000
O        2.32240000       0.02760000      -0.61680000
C        2.25800000      -0.79420000       0.55250000
C        1.50600000      -1.92930000      -0.16950000
C        0.58670000      -2.13270000       1.04590000
C        0.81610000      -0.61150000       1.26150000
O        0.58810000       0.04510000       2.46250000
H        0.96730000       1.97070000       0.01310000
H       -0.54850000       1.84600000      -0.89840000
H       -0.58030000       1.88110000       0.87340000
H       -0.92070000      -0.45160000      -0.04720000
H        0.84140000      -0.61530000      -2.02920000
H        3.17140000      -0.86720000       1.14340000
H        2.00010000      -2.73030000      -0.71360000
H       -0.44100000      -2.48010000       0.91070000
H        1.09000000      -2.74830000       1.80010000
H        1.08630000      -0.39750000       3.15690000
