16
Properties=species:S:1:pos:R:3 gdb_130373=T pbc="F F F"
N       -0.08680000       1.35040000       0.08240000
C       -0.08700000      -0.01630000       0.06860000
N       -1.16490000      -0.69150000      -0.06260000
C       -1.10510000      -2.07970000      -0.03520000
N        0.00750000      -2.81920000      -0.10650000
N       -0.43360000      -4.08650000      -0.05590000
C       -1.79080000      -4.18640000       0.04280000
C       -2.26830000      -2.89170000       0.05780000
N       -3.57750000      -2.41150000       0.21340000
H        0.77560000       1.82850000      -0.11580000
H       -0.93000000       1.80420000      -0.23560000
H        0.89560000      -0.47270000       0.21890000
H        0.22900000      -4.83660000      -0.13870000
H       -2.29040000      -5.14010000       0.09560000
H       -4.24650000      -2.87300000      -0.39020000
H       -3.58980000      -1.41420000       0.02900000
