15
Properties=species:S:1:pos:R:3 gdb_33977=T pbc="F F F"
C       -0.04210000      -1.20050000      -0.09070000
C        0.02260000      -0.00300000      -0.00690000
C        0.05200000       1.40900000       0.13190000
O        0.26970000       2.25540000      -1.02040000
C        1.14540000       2.41590000       0.09340000
C        0.43360000       3.32780000       1.10650000
C       -0.71470000       2.29180000       1.12440000
C       -2.15000000       2.38970000       1.36450000
O       -1.25330000       1.79100000       2.32270000
H       -0.09120000      -2.25860000      -0.16780000
H        2.20570000       2.27010000      -0.07390000
H        0.92920000       3.36640000       2.07990000
H        0.20880000       4.33580000       0.75230000
H       -2.58250000       3.34110000       1.66890000
H       -2.82920000       1.69760000       0.87040000
