10
Properties=species:S:1:pos:R:3 gdb_1379=T pbc="F F F"
N       -0.02050000       1.43890000      -0.07860000
C       -0.01280000       0.17870000      -0.05010000
O       -1.13100000      -0.60580000      -0.08250000
C       -2.37940000      -0.02130000       0.04540000
O       -3.36010000      -0.68500000      -0.04450000
C        1.23270000      -0.68440000       0.01100000
O        2.32780000      -0.19040000       0.03650000
H        0.94760000       1.76820000      -0.04080000
H       -2.31990000       1.05670000       0.23620000
H        1.05420000      -1.77610000       0.02930000
