15
Properties=species:S:1:pos:R:3 gdb_29525=T pbc="F F F"
N       -0.00510000       1.44580000       0.15610000
C        0.02280000       0.04410000       0.04740000
C       -1.05600000      -0.82130000      -0.07620000
N       -0.59230000      -2.15080000      -0.12060000
C        0.74780000      -2.09040000       0.06440000
C        1.15760000      -0.80160000       0.14750000
O        2.53980000      -0.74840000      -0.02150000
C        2.90510000      -2.11090000       0.19890000
O        1.78370000      -2.95810000      -0.15900000
H        0.82030000       1.87300000      -0.24540000
H       -0.82430000       1.84670000      -0.28240000
H       -2.11220000      -0.61870000      -0.00750000
H       -1.17730000      -2.95570000       0.02210000
H        3.75970000      -2.37120000      -0.42670000
H        3.11590000      -2.26430000       1.26950000
