20
Properties=species:S:1:pos:R:3 gdb_88546=T pbc="F F F"
C        0.23780000       1.51710000      -0.49260000
C        0.01460000       0.07420000      -0.09940000
C        1.13930000      -0.89900000      -0.07640000
N        0.50610000      -0.48620000       1.17460000
C        1.20080000       0.35460000       2.09330000
C        2.63850000       0.85690000       2.05730000
C        2.15050000       0.03550000       3.22130000
O        1.44930000       0.85370000       4.16020000
C        0.43770000       1.14290000       3.15760000
H        1.25120000       1.85180000      -0.26050000
H        0.07760000       1.64000000      -1.56910000
H       -0.46650000       2.18000000       0.02210000
H       -0.97240000      -0.30830000      -0.35470000
H        0.99110000      -1.93970000      -0.35210000
H        2.12640000      -0.50520000      -0.31060000
H        3.29240000       0.32140000       1.37590000
H        2.88260000       1.90750000       2.20040000
H        2.60350000      -0.88230000       3.57770000
H        0.29730000       2.21920000       3.00180000
H       -0.51430000       0.66920000       3.41900000
