21
Properties=species:S:1:pos:R:3 gdb_78030=T pbc="F F F"
C       -0.30630000       1.46350000      -0.27060000
C        0.02110000      -0.00780000      -0.15050000
C        1.40130000      -0.63980000      -0.35050000
C        2.65420000       0.21820000      -0.29840000
O        2.53460000       1.34310000      -1.16240000
C        2.75540000       0.57860000       1.20440000
O        1.47590000       0.36070000       1.79090000
C        0.76850000      -0.59410000       1.01880000
C        0.29050000      -1.78020000       1.81080000
H       -0.30400000       1.78700000      -1.31490000
H       -1.30260000       1.65330000       0.14490000
H        0.40900000       2.07990000       0.27350000
H       -0.76530000      -0.65830000      -0.53040000
H        1.44720000      -1.56260000      -0.91730000
H        3.52590000      -0.38240000      -0.59670000
H        3.36360000       1.83120000      -1.13170000
H        3.50730000      -0.05710000       1.69800000
H        3.03320000       1.62760000       1.35550000
H       -0.38850000      -1.46180000       2.60890000
H       -0.24850000      -2.48160000       1.16720000
H        1.12980000      -2.31030000       2.27410000
