13
Properties=species:S:1:pos:R:3 gdb_14416=T pbc="F F F"
O       -0.14650000       1.39610000       0.02170000
C        0.04390000       0.05160000      -0.00120000
C        0.07190000      -1.02350000      -1.02430000
N        1.28550000      -1.63550000      -0.47060000
C        0.96230000      -0.96170000       0.82230000
C       -0.39270000      -1.55900000       1.28950000
O       -0.77690000      -2.03440000       2.31980000
C       -1.05600000      -1.03200000       0.05260000
H        0.63790000       1.82440000      -0.34260000
H       -0.17170000      -1.01230000      -2.07950000
H        1.23400000      -2.65480000      -0.39720000
H        1.77410000      -0.74960000       1.51420000
H       -2.10210000      -0.92400000      -0.19630000
