14
Properties=species:S:1:pos:R:3 gdb_4310=T pbc="F F F"
N        0.02240000       1.39230000       0.16060000
C       -0.01860000       0.01780000       0.05670000
C       -1.17730000      -0.69870000       0.03600000
C       -1.18940000      -2.13630000      -0.00510000
N       -2.23750000      -2.85610000      -0.02070000
O        0.07650000      -2.76420000      -0.03780000
C        1.20640000      -2.03930000      -0.02060000
C        1.23860000      -0.69920000       0.02550000
H        0.84460000       1.84950000      -0.20140000
H       -0.83330000       1.88490000      -0.04520000
H       -2.14850000      -0.22020000       0.05360000
H       -1.99320000      -3.84510000      -0.05610000
H        2.08740000      -2.67020000      -0.04780000
H        2.18660000      -0.17750000       0.05080000
