20
Properties=species:S:1:pos:R:3 gdb_16419=T pbc="F F F"
C       -0.59310000       1.38100000       0.04640000
C        0.09680000       0.01570000      -0.01720000
C        1.06880000      -0.04180000      -1.22100000
O        2.13060000      -0.97980000      -1.06700000
C        2.56910000      -1.12620000       0.27670000
C        1.44470000      -1.76510000       1.13280000
C        0.89030000      -0.31830000       1.26320000
C        2.36390000       0.16940000       1.11210000
H        0.13060000       2.17950000       0.24770000
H       -1.09580000       1.61930000      -0.89750000
H       -1.34660000       1.40410000       0.84020000
H       -0.67410000      -0.75650000      -0.13990000
H        0.54500000      -0.31640000      -2.14170000
H        1.49060000       0.96260000      -1.37930000
H        3.55310000      -1.59710000       0.23240000
H        0.82060000      -2.51610000       0.64080000
H        1.82150000      -2.15330000       2.08330000
H        0.33630000      -0.04670000       2.16580000
H        2.90760000       0.10960000       2.05790000
H        2.56880000       1.13480000       0.64290000
