14
Properties=species:S:1:pos:R:3 gdb_804=T pbc="F F F"
O       -0.19470000       1.35910000       0.55870000
N        0.01730000      -0.02730000       0.41940000
C       -0.98010000      -0.58250000      -0.12730000
C       -2.36020000      -0.15060000      -0.57740000
C       -2.75690000      -1.65120000      -0.56630000
O       -3.42490000      -2.04550000      -1.73840000
C       -1.24440000      -2.04400000      -0.41450000
H        0.61510000       1.64340000       0.99560000
H       -2.90480000       0.53560000       0.07370000
H       -2.36490000       0.24480000      -1.59880000
H       -3.32840000      -1.91200000       0.33420000
H       -3.63010000      -2.98360000      -1.67180000
H       -0.83300000      -2.36200000      -1.37900000
H       -0.96940000      -2.76860000       0.35560000
