13
Properties=species:S:1:pos:R:3 gdb_1451=T pbc="F F F"
C        0.08900000       1.40580000      -0.02680000
N       -0.11850000      -0.02000000      -0.17570000
C       -1.30410000      -0.61110000       0.08590000
O       -2.31840000      -0.07440000       0.46260000
O       -1.17390000      -1.96960000      -0.15180000
C       -2.27860000      -2.74760000       0.05830000
N       -2.18030000      -3.98470000      -0.15210000
H        0.86870000       1.61780000       0.71260000
H        0.37180000       1.86690000      -0.97910000
H       -0.85000000       1.84310000       0.31340000
H        0.63280000      -0.61530000      -0.48330000
H       -3.13980000      -2.17040000       0.39600000
H       -3.07270000      -4.43550000       0.04370000
