17
Properties=species:S:1:pos:R:3 gdb_3030=T pbc="F F F"
C       -0.02400000      -1.19460000       0.01430000
C       -0.00090000       0.00450000       0.09650000
C        0.06470000       1.45780000       0.18500000
C        1.43580000       2.02820000      -0.24050000
C        1.48570000       3.53700000      -0.14580000
C        1.79900000       4.20830000       1.16980000
C        2.80050000       4.24830000       0.04110000
H       -0.05870000      -2.25340000      -0.05450000
H       -0.72160000       1.89800000      -0.44240000
H       -0.15530000       1.77600000       1.21200000
H        2.21530000       1.59070000       0.39430000
H        1.65290000       1.70360000      -1.26510000
H        0.75830000       4.04820000      -0.77270000
H        1.27380000       5.12150000       1.42660000
H        2.02410000       3.57270000       2.02050000
H        3.69450000       3.64050000       0.13620000
H        2.95760000       5.18850000      -0.47580000
