15
Properties=species:S:1:pos:R:3 gdb_48224=T pbc="F F F"
N        0.19960000       1.18190000      -0.63760000
C        0.10700000       0.02030000      -0.14070000
N       -1.12410000      -0.64440000      -0.03620000
C       -1.12800000      -2.03080000       0.18790000
N       -0.05140000      -2.70270000       0.21130000
C       -2.36990000       0.00270000      -0.20350000
N       -3.36180000      -0.68450000      -0.62700000
C       -2.48020000       1.37370000       0.20510000
C       -2.74710000       2.48660000       0.57470000
H        1.16660000       1.49990000      -0.59860000
H        0.91790000      -0.60650000       0.22960000
H       -2.13910000      -2.40800000       0.33440000
H       -0.25250000      -3.67450000       0.43690000
H       -4.20750000      -0.11700000      -0.61360000
H       -2.93720000       3.48320000       0.89010000
