20
Properties=species:S:1:pos:R:3 gdb_103812=T pbc="F F F"
C       -1.10310000       0.96110000       1.05800000
C       -0.16680000       0.11800000       0.18100000
C        1.04820000      -0.39790000       0.93310000
C        2.05920000       0.64300000       1.36850000
O        0.77880000      -1.40710000       1.93190000
C        1.52750000      -1.79090000       0.77230000
C        0.91510000      -2.80340000      -0.16840000
N       -0.31900000      -3.23540000       0.20600000
O        1.51200000      -3.18050000      -1.15800000
H       -0.62210000       1.87660000       1.41520000
H       -1.99260000       1.25590000       0.49400000
H       -1.42970000       0.38970000       1.93240000
H       -0.72390000      -0.72590000      -0.23270000
H        0.18530000       0.71160000      -0.67150000
H        1.59310000       1.39810000       2.00850000
H        2.87350000       0.17950000       1.92980000
H        2.48100000       1.15340000       0.49650000
H        2.58750000      -1.97980000       0.93880000
H       -0.68590000      -2.95850000       1.10160000
H       -0.75310000      -3.97820000      -0.31620000
