16
Properties=species:S:1:pos:R:3 gdb_33518=T pbc="F F F"
C       -0.25920000      -1.28730000      -0.41340000
C       -0.12580000      -0.11590000      -0.18570000
C        0.05890000       1.30070000       0.12170000
C       -0.46670000       1.69390000       1.55590000
C        0.54270000       2.71010000       2.02400000
C        1.63450000       2.73260000       1.26470000
C        1.57490000       1.73590000       0.13620000
C       -0.65420000       2.11600000      -0.87940000
N       -1.20660000       2.76890000      -1.65630000
H       -0.38480000      -2.32080000      -0.62440000
H       -1.49170000       2.07160000       1.51110000
H       -0.47780000       0.80660000       2.19970000
H        0.37880000       3.31410000       2.90860000
H        2.50370000       3.35790000       1.43090000
H        2.20670000       0.86190000       0.33300000
H        1.87890000       2.14080000      -0.83280000
