14
Properties=species:S:1:pos:R:3 gdb_29162=T pbc="F F F"
N        0.05520000       1.44160000       0.05850000
C       -0.02100000       0.05180000      -0.04440000
C       -1.18260000      -0.63290000      -0.14160000
O       -1.17890000      -1.99950000      -0.32900000
C       -0.03100000      -2.69270000      -0.40540000
O       -0.01820000      -3.89060000      -0.57850000
C        1.20310000      -1.86880000      -0.26040000
N        2.34040000      -2.59330000      -0.29990000
N        1.20260000      -0.58070000      -0.09820000
H        0.91020000       1.73270000       0.51260000
H       -0.75600000       1.88120000       0.46950000
H       -2.18250000      -0.22900000      -0.10820000
H        2.26130000      -3.57280000      -0.51700000
H        3.23080000      -2.12770000      -0.31110000
