17
Properties=species:S:1:pos:R:3 gdb_66090=T pbc="F F F"
O        0.12250000       1.42230000      -0.49860000
C        0.01180000       0.09960000      -0.09000000
C        0.00000000      -0.16190000       1.44790000
C       -1.20930000      -1.11260000       1.27090000
C       -1.42560000      -0.57160000      -0.17680000
C       -2.51150000       0.47360000      -0.27150000
O       -3.33620000       0.50980000      -1.14620000
C        1.02330000      -0.75600000      -0.81630000
O        1.75550000      -0.29360000      -1.65730000
H        0.77480000       1.42900000      -1.21900000
H        0.91100000      -0.56520000       1.89730000
H       -0.26130000       0.76640000       1.96010000
H       -0.93460000      -2.16930000       1.27200000
H       -2.04310000      -0.97580000       1.96310000
H       -1.57990000      -1.30220000      -0.97380000
H       -2.51240000       1.22010000       0.55320000
H        1.05290000      -1.82970000      -0.54210000
