21
Properties=species:S:1:pos:R:3 gdb_59742=T pbc="F F F"
C       -0.05240000       1.44800000      -0.19060000
C       -0.02000000      -0.06610000       0.06810000
C        0.77680000      -0.41970000       1.32940000
N       -1.36860000      -0.64500000       0.11560000
C       -2.00780000      -1.16150000      -1.08560000
C       -3.39490000      -1.57400000      -0.55890000
N       -3.56560000      -0.62650000       0.53250000
C       -2.32510000      -0.22640000       1.02630000
O       -2.13720000       0.38700000       2.05870000
H        0.96400000       1.84010000      -0.29620000
H       -0.60010000       1.68110000      -1.10970000
H       -0.53940000       1.96000000       0.64290000
H        0.46480000      -0.55360000      -0.78660000
H        0.81510000      -1.50410000       1.46870000
H        1.80200000      -0.04620000       1.24200000
H        0.30920000       0.02530000       2.20890000
H       -2.09930000      -0.38770000      -1.86410000
H       -1.45310000      -2.00490000      -1.50730000
H       -4.17510000      -1.47280000      -1.31800000
H       -3.38190000      -2.61690000      -0.20950000
H       -4.28810000      -0.76340000       1.22220000
