21
Properties=species:S:1:pos:R:3 gdb_108264=T pbc="F F F"
C       -0.25240000       1.62440000      -0.10610000
C        0.08130000       0.14490000       0.11490000
C        0.75990000      -0.48840000      -1.09810000
C        2.24670000      -0.12140000      -1.27990000
C        2.97660000      -1.41470000      -0.78090000
C        1.97850000      -2.52040000      -1.13130000
C        0.77110000      -1.98080000      -1.23850000
C       -0.44890000      -1.87490000      -2.11590000
O       -0.16790000      -0.44930000      -2.25920000
H        0.65110000       2.22430000      -0.25820000
H       -0.88500000       1.73890000      -0.99030000
H       -0.78490000       2.03810000       0.75540000
H        0.73770000       0.02600000       0.98650000
H       -0.83880000      -0.40760000       0.33940000
H        2.44860000       0.02020000      -2.34570000
H        2.55770000       0.78180000      -0.74690000
H        3.93490000      -1.56660000      -1.28820000
H        3.20080000      -1.36390000       0.29320000
H        2.27540000      -3.53410000      -1.37340000
H       -0.42020000      -2.41040000      -3.07050000
H       -1.42060000      -2.04130000      -1.63300000
