19
Properties=species:S:1:pos:R:3 gdb_64713=T pbc="F F F"
C        0.00010000       1.60910000       0.17450000
C        0.02010000       0.09060000       0.05450000
C       -1.38850000      -0.49420000      -0.17230000
C       -1.98640000      -0.07280000      -1.43830000
N       -2.44150000       0.26290000      -2.44620000
C        1.07420000      -0.53980000      -0.94180000
C        1.68340000      -1.30000000       0.23890000
N        2.13690000      -0.26250000       1.19750000
C        0.72030000      -0.68740000       1.19250000
H        1.00300000       1.97440000       0.40380000
H       -0.33820000       2.07370000      -0.75740000
H       -0.67560000       1.93230000       0.97540000
H       -1.34760000      -1.59000000      -0.15850000
H       -2.05520000      -0.19120000       0.64470000
H        0.61090000      -1.17990000      -1.69590000
H        1.74800000       0.16740000      -1.43000000
H        2.13140000      -2.28560000       0.23860000
H        2.58930000      -0.74200000       1.97550000
H        0.25620000      -1.09020000       2.08630000
