20
Properties=species:S:1:pos:R:3 gdb_10174=T pbc="F F F"
C       -1.51910000      -0.26530000      -0.02110000
C       -0.00050000      -0.09450000       0.03460000
C        0.73690000      -0.62730000      -1.21770000
C        2.24280000      -0.29190000      -1.15720000
C        3.00820000      -0.66830000      -2.41900000
O        4.35360000      -0.24770000      -2.24300000
C        0.51460000      -2.06380000      -1.39120000
C        0.33900000      -3.24810000      -1.50870000
H       -1.94680000       0.26870000      -0.87720000
H       -1.79340000      -1.32000000      -0.11460000
H       -1.98910000       0.12870000       0.88500000
H        0.25070000       0.96760000       0.14120000
H        0.40190000      -0.60280000       0.91880000
H        0.31180000      -0.11430000      -2.09390000
H        2.35540000       0.78550000      -0.99100000
H        2.70000000      -0.79950000      -0.30060000
H        2.94360000      -1.75340000      -2.58350000
H        2.54850000      -0.17550000      -3.29260000
H        4.86170000      -0.54540000      -3.00290000
H        0.18050000      -4.29190000      -1.62320000
