19
Properties=species:S:1:pos:R:3 gdb_32725=T pbc="F F F"
C       -0.25890000       1.58990000       0.26560000
C       -0.04730000       0.11670000       0.09600000
C        0.09770000      -0.58190000      -1.06800000
C        0.11720000      -0.20200000      -2.50710000
C        1.49520000      -0.36810000      -3.15490000
O        1.37210000       0.01540000      -4.51520000
O        0.27190000      -1.91440000      -0.79630000
C        0.23420000      -2.05840000       0.55380000
C        0.04150000      -0.85800000       1.15210000
H        0.55690000       2.05000000       0.83520000
H       -0.31730000       2.10300000      -0.69790000
H       -1.18690000       1.80060000       0.80960000
H       -0.60050000      -0.80880000      -3.07260000
H       -0.19570000       0.84080000      -2.61180000
H        2.22800000       0.25810000      -2.62200000
H        1.82020000      -1.41440000      -3.05630000
H        2.22360000      -0.11390000      -4.94260000
H        0.35520000      -3.06400000       0.92170000
H       -0.03340000      -0.67230000       2.21290000
