18
Properties=species:S:1:pos:R:3 gdb_47056=T pbc="F F F"
O        0.04130000       0.47090000      -1.16890000
C       -0.03770000       1.24370000      -0.24560000
C       -1.37050000       1.90030000       0.13380000
N       -1.21990000       2.73300000       1.32230000
C       -0.24230000       3.78750000       1.11340000
C        0.44230000       4.30050000       2.39470000
O        1.67660000       3.62800000       2.06100000
C        1.14760000       3.18240000       0.79400000
C        1.14380000       1.66130000       0.61700000
H       -1.72850000       2.44010000      -0.76300000
H       -2.09380000       1.10210000       0.33020000
H       -2.11380000       3.11200000       1.61370000
H       -0.57270000       4.57100000       0.41380000
H        0.57350000       5.38810000       2.45180000
H        0.00810000       3.92910000       3.32940000
H        1.66880000       3.66900000      -0.03970000
H        1.00380000       1.21650000       1.60890000
H        2.06850000       1.27690000       0.18370000
