21
Properties=species:S:1:pos:R:3 gdb_46506=T pbc="F F F"
O        0.00420000      -0.08310000       0.07930000
C       -0.01340000       1.12420000       0.01360000
C       -1.30890000       1.92650000      -0.01190000
C       -1.31820000       2.96170000      -1.15690000
C       -0.06620000       3.82190000      -1.13310000
C       -0.09390000       5.17070000      -1.79960000
C       -0.07190000       5.07740000      -0.29030000
C        1.20780000       2.99640000      -1.19150000
C        1.25840000       1.96190000      -0.04710000
H       -2.14890000       1.23130000      -0.07910000
H       -1.38600000       2.45890000       0.94650000
H       -1.37940000       2.43380000      -2.11830000
H       -2.21610000       3.58500000      -1.08570000
H        0.80510000       5.51250000      -2.30200000
H       -1.01540000       5.48750000      -2.27700000
H       -0.97870000       5.33340000       0.24840000
H        0.84190000       5.35840000       0.22340000
H        1.25710000       2.47010000      -2.15450000
H        2.08980000       3.64430000      -1.14480000
H        1.34710000       2.49650000       0.90900000
H        2.11510000       1.29000000      -0.13760000
