23
Properties=species:S:1:pos:R:3 gdb_73355=T pbc="F F F"
C       -0.00230000       1.52300000       0.01820000
C        0.00520000      -0.00560000       0.00110000
C        0.61960000      -0.57140000      -1.30980000
C       -0.00380000      -1.97170000      -1.52330000
C       -1.31040000      -1.93550000      -0.73300000
C       -1.25480000      -1.95220000       0.78680000
C        0.10600000      -2.00470000       1.47860000
C        0.71330000      -0.59960000       1.25080000
C       -1.40490000      -0.64560000       0.04560000
H        1.01710000       1.92400000      -0.01460000
H       -0.54380000       1.92700000      -0.84420000
H       -0.47910000       1.90750000       0.92650000
H        0.32640000       0.08000000      -2.14160000
H        1.71460000      -0.58520000      -1.28470000
H       -0.19600000      -2.16560000      -2.58270000
H        0.66150000      -2.77210000      -1.17910000
H       -2.19880000      -2.36460000      -1.18460000
H       -2.10820000      -2.39180000       1.29250000
H       -0.00860000      -2.22180000       2.54470000
H        0.74370000      -2.79690000       1.06930000
H        1.80360000      -0.61200000       1.14530000
H        0.48240000       0.03320000       2.11580000
H       -2.29820000      -0.03280000       0.08500000
