18
Properties=species:S:1:pos:R:3 gdb_49726=T pbc="F F F"
O       -0.37310000       0.80960000      -1.33950000
C        0.01670000       1.13540000      -0.24290000
C        1.30050000       1.85200000      -0.02880000
C        1.41800000       2.84540000       1.11240000
C        0.36000000       3.04480000       2.13580000
C        0.36650000       2.31700000       3.25270000
C        1.40020000       1.24110000       3.47520000
C        1.85480000       0.60700000       2.15190000
N        2.19140000       1.62370000       1.12790000
H       -0.58920000       0.93550000       0.66370000
H        1.82620000       2.05870000      -0.95770000
H        1.99950000       3.73900000       0.87890000
H       -0.36420000       3.83780000       1.97330000
H       -0.36460000       2.49910000       4.03500000
H        2.26470000       1.66990000       4.00140000
H        1.00860000       0.45610000       4.13060000
H        2.75820000       0.00970000       2.31390000
H        1.08090000      -0.08230000       1.80210000
