17
Properties=species:S:1:pos:R:3 gdb_14690=T pbc="F F F"
C        0.20430000       1.52380000       0.14540000
C        0.32890000       0.00230000       0.04930000
C        0.21520000      -0.50190000      -1.40430000
C        0.33440000      -1.95020000      -1.52300000
C        0.43910000      -3.14640000      -1.59250000
C        0.56130000      -4.59870000      -1.69050000
C        1.95560000      -5.06340000      -1.67660000
N        3.04660000      -5.44110000      -1.66630000
H        0.99000000       2.02420000      -0.43140000
H       -0.76120000       1.86940000      -0.24040000
H        0.28780000       1.86040000       1.18280000
H        1.28900000      -0.32550000       0.46250000
H       -0.44830000      -0.47960000       0.65290000
H       -0.74530000      -0.18000000      -1.82860000
H        0.99050000      -0.02410000      -2.01790000
H        0.03210000      -5.08910000      -0.86310000
H        0.09040000      -4.96540000      -2.61200000
