20
Properties=species:S:1:pos:R:3 gdb_85737=T pbc="F F F"
C       -0.00840000       1.56780000       0.03600000
C        0.02950000       0.03890000       0.01830000
C        0.80640000      -0.54810000      -1.18670000
C        1.31350000      -1.94540000      -0.72270000
C        2.48580000      -2.42690000      -1.44100000
C        3.45160000      -2.82760000      -2.03440000
C        1.50870000      -1.76220000       0.78370000
N        2.20000000      -0.50660000       1.13200000
C        0.72410000      -0.58640000       1.22100000
H        1.00610000       1.96910000       0.12240000
H       -0.45620000       1.96450000      -0.88120000
H       -0.59580000       1.94250000       0.88130000
H       -0.99990000      -0.34650000       0.00380000
H        0.19660000      -0.61580000      -2.09050000
H        1.66920000       0.08230000      -1.41010000
H        0.50360000      -2.67800000      -0.84900000
H        4.30780000      -3.17640000      -2.55610000
H        1.65210000      -2.63760000       1.40830000
H        2.60310000      -0.59570000       2.06080000
H        0.25370000      -0.54580000       2.19910000
