19
Properties=species:S:1:pos:R:3 gdb_31337=T pbc="F F F"
C        0.46180000       1.13020000      -0.58780000
C       -0.30160000       0.25300000       0.40830000
C        0.58640000      -0.43270000       1.39980000
C        1.95240000      -0.40990000       1.56200000
C        3.42030000      -0.05700000       1.33890000
C        3.70040000      -0.99710000       2.57100000
N        2.23770000      -1.22020000       2.62570000
C        1.07190000      -1.72640000       3.10480000
N        0.06820000      -1.26560000       2.37920000
H        1.17840000       0.53930000      -1.16830000
H       -0.22270000       1.61070000      -1.29280000
H        1.02020000       1.92010000      -0.07390000
H       -1.04040000       0.85890000       0.94840000
H       -0.88540000      -0.50300000      -0.13250000
H        3.86100000      -0.40020000       0.39990000
H        3.69340000       0.98880000       1.49830000
H        4.27280000      -1.90260000       2.35660000
H        4.10040000      -0.50490000       3.46070000
H        0.99260000      -2.39960000       3.94390000
