23
Properties=species:S:1:pos:R:3 gdb_102322=T pbc="F F F"
C       -0.10820000       1.43210000       0.11160000
C        0.05320000      -0.08020000      -0.05620000
C        0.85350000      -0.45330000      -1.31360000
O        2.15630000       0.07560000      -1.18310000
C        2.92210000       0.14130000      -2.39270000
C        2.55420000       1.38190000      -3.20890000
C        4.38860000       0.13620000      -1.97790000
C        0.90720000      -1.97460000      -1.43830000
O        0.03680000      -2.64940000      -1.92220000
H        0.86810000       1.91990000       0.15720000
H       -0.66490000       1.86410000      -0.72730000
H       -0.65400000       1.66420000       1.03080000
H        0.56610000      -0.50200000       0.81700000
H       -0.92370000      -0.57060000      -0.12520000
H        0.33400000      -0.05820000      -2.19910000
H        2.71820000      -0.75800000      -2.99650000
H        3.13920000       1.41890000      -4.13330000
H        1.49600000       1.38660000      -3.48600000
H        2.76110000       2.28790000      -2.63050000
H        4.62460000      -0.76800000      -1.41090000
H        5.03910000       0.17950000      -2.85630000
H        4.60420000       1.00280000      -1.34480000
H        1.83190000      -2.41920000      -0.99980000
