13
Properties=species:S:1:pos:R:3 gdb_5701=T pbc="F F F"
C        0.06400000       1.35590000      -0.14120000
C        1.53890000       1.85790000       0.14020000
C        2.09790000       0.54900000       0.56660000
C        1.14700000      -0.38660000       0.70120000
O       -0.10980000      -0.00250000       0.38370000
N        1.65470000      -1.56110000       1.18820000
C        2.91750000      -1.26650000       1.33370000
O        3.27780000       0.00190000       0.98730000
H       -0.69100000       1.98530000       0.33200000
H       -0.12690000       1.31370000      -1.21710000
H        1.98030000       2.28910000      -0.76410000
H        1.56990000       2.62650000       0.92280000
H        3.70930000      -1.90910000       1.68370000
