16
Properties=species:S:1:pos:R:3 gdb_72059=T pbc="F F F"
O       -0.29260000       1.28600000      -0.11430000
C       -0.04500000      -0.06020000      -0.04760000
C        0.92520000      -0.86890000      -0.90710000
C        0.11330000      -2.11530000      -0.45240000
C        0.38420000      -2.21480000       1.07500000
C       -0.37360000      -0.89500000       1.19270000
C       -1.10650000      -1.14940000      -0.13060000
C       -2.47260000      -1.13430000      -0.47450000
N       -3.59380000      -1.13550000      -0.76800000
H        0.21110000       1.73420000       0.57420000
H        0.77720000      -0.64810000      -1.96670000
H        1.99250000      -0.84870000      -0.66000000
H        0.05190000      -2.99950000      -1.08000000
H       -0.16870000      -3.03580000       1.53790000
H        1.43170000      -2.24420000       1.39350000
H       -0.80650000      -0.42620000       2.06750000
