19
Properties=species:S:1:pos:R:3 gdb_26673=T pbc="F F F"
C       -0.04690000       1.48130000       0.06880000
C       -0.00050000      -0.00590000      -0.02870000
C        0.01210000      -0.83570000      -1.13520000
N       -0.01490000      -0.55530000      -2.53560000
C        0.06120000      -2.17920000      -0.66220000
O        0.08580000      -3.27210000      -1.47270000
C        0.07820000      -2.16570000       0.71100000
C        0.12620000      -3.27640000       1.70270000
N        0.03960000      -0.82340000       1.07270000
H        0.83050000       1.89680000       0.58130000
H       -0.07340000       1.91270000      -0.93570000
H       -0.93590000       1.84030000       0.60360000
H        0.78220000      -0.00580000      -2.83910000
H       -0.85270000      -0.05750000      -2.81800000
H        0.06260000      -2.91010000      -2.37130000
H        1.01710000      -3.23250000       2.34380000
H       -0.75040000      -3.29050000       2.36450000
H        0.15130000      -4.22990000       1.17000000
H        0.04220000      -0.49770000       2.02330000
