19
Properties=species:S:1:pos:R:3 gdb_47433=T pbc="F F F"
O        0.07810000      -0.01970000       0.28180000
C        0.00640000       1.15880000       0.05860000
C       -1.26070000       1.99920000      -0.10490000
C       -0.72080000       3.42750000      -0.01150000
O        0.62280000       3.36230000      -0.49920000
C        1.19820000       2.11950000      -0.11310000
C        2.03500000       2.21060000       1.14540000
C        3.12000000       1.19190000       1.38070000
C        3.48350000       2.61730000       1.05210000
H       -1.67620000       1.79380000      -1.09840000
H       -2.01390000       1.73280000       0.63900000
H       -1.25760000       4.14850000      -0.63160000
H       -0.74140000       3.78840000       1.02830000
H        1.82810000       1.76800000      -0.94030000
H        1.49020000       2.55090000       2.02220000
H        3.27280000       0.83560000       2.39270000
H        3.27200000       0.43460000       0.61970000
H        3.88480000       2.82970000       0.06660000
H        3.88800000       3.24290000       1.83970000
