22
Properties=species:S:1:pos:R:3 gdb_99786=T pbc="F F F"
C       -0.78950000      -0.15370000       0.62230000
O        0.13750000      -1.02300000       0.00850000
C        0.64100000      -0.60750000      -1.25600000
C        1.77970000      -1.60010000      -1.56710000
C        2.97510000      -1.42410000      -0.62870000
O        1.27710000      -2.92820000      -1.53030000
C       -0.42140000      -0.61890000      -2.33760000
C       -1.20200000       0.60300000      -2.65720000
N       -0.17620000       0.11320000      -3.59210000
H       -0.38020000       0.86300000       0.72390000
H       -1.73520000      -0.09460000       0.06930000
H       -0.98680000      -0.55370000       1.62000000
H        1.05470000       0.41470000      -1.17670000
H        2.09870000      -1.43480000      -2.60260000
H        3.72670000      -2.18830000      -0.84160000
H        3.43660000      -0.43830000      -0.75430000
H        2.65910000      -1.52350000       0.41390000
H        0.81350000      -3.00960000      -0.68730000
H       -0.87950000      -1.59300000      -2.48610000
H       -2.22460000       0.51910000      -3.01410000
H       -0.99530000       1.50620000      -2.08750000
H        0.66540000       0.68050000      -3.50250000
