18
Properties=species:S:1:pos:R:3 gdb_88913=T pbc="F F F"
C       -0.25760000       1.35810000       0.33240000
C        0.08440000      -0.09670000       0.11150000
C        1.45060000      -0.50960000      -0.38250000
C        1.03300000      -0.83580000       1.02780000
N        1.68600000      -0.14560000       2.10040000
C        1.05710000       0.09350000       3.29080000
O       -0.11610000      -0.14930000       3.50070000
C        1.93280000       0.68380000       4.29880000
C        2.62790000       1.16590000       5.15330000
H        0.61060000       1.92120000       0.68640000
H       -0.60090000       1.82230000      -0.59810000
H       -1.04850000       1.45990000       1.08140000
H       -0.74460000      -0.70530000      -0.23840000
H        1.54530000      -1.32520000      -1.09020000
H        2.18660000       0.27910000      -0.50830000
H        0.77990000      -1.86880000       1.25300000
H        2.68480000      -0.01310000       2.06260000
H        3.23030000       1.59210000       5.91820000
