16
Properties=species:S:1:pos:R:3 gdb_18566=T pbc="F F F"
O       -0.28990000       0.26770000       0.60540000
C       -0.09360000       1.34870000       0.15070000
O       -1.01330000       2.20270000      -0.40570000
C        0.01990000       3.21500000      -0.69320000
C       -0.11590000       4.44700000       0.19160000
C        0.40250000       3.98810000       1.57100000
C        1.55460000       3.01640000       1.23670000
C        1.09000000       2.30060000      -0.04490000
H        0.05970000       3.40220000      -1.76640000
H        0.52910000       5.23540000      -0.21580000
H       -1.13910000       4.83110000       0.20980000
H        0.72290000       4.82110000       2.20080000
H       -0.39080000       3.46020000       2.11040000
H        2.47320000       3.57300000       1.02030000
H        1.77640000       2.31520000       2.04520000
H        1.89220000       1.90020000      -0.66470000
