17
Properties=species:S:1:pos:R:3 gdb_30284=T pbc="F F F"
C        0.09460000       1.56890000      -0.14760000
C       -0.05920000       0.06880000       0.08380000
O        0.52340000      -0.64720000      -1.04280000
C        1.48500000      -1.63360000      -0.64580000
C        1.53480000      -1.43180000       0.82710000
C        0.67640000      -0.48920000       1.26300000
C        0.83760000      -0.43870000       2.68560000
C        1.79360000      -1.36900000       2.96970000
O        2.23700000      -1.99560000       1.82970000
H        1.15210000       1.84600000      -0.17270000
H       -0.36550000       1.85160000      -1.09850000
H       -0.39650000       2.13010000       0.65440000
H       -1.13100000      -0.18070000       0.11630000
H        1.14170000      -2.63750000      -0.93980000
H        2.44020000      -1.44570000      -1.15680000
H        0.33200000       0.18620000       3.40520000
H        2.25740000      -1.69740000       3.88500000
