17
Properties=species:S:1:pos:R:3 gdb_98636=T pbc="F F F"
C       -0.33830000       1.40460000      -0.81060000
C       -0.94140000       0.02630000      -0.55520000
C       -0.61680000      -0.52050000       0.81930000
O        0.07100000       0.05740000       1.62850000
C       -1.21300000      -1.86890000       1.21040000
C       -2.61260000      -1.83380000       1.86810000
C       -3.02250000      -2.65450000       0.64500000
O       -3.99880000      -3.16710000       0.20940000
O       -1.75970000      -2.64310000       0.09270000
H       -0.58480000       1.75000000      -1.81790000
H       -0.71350000       2.13720000      -0.09140000
H        0.74950000       1.37840000      -0.70920000
H       -2.03450000       0.03470000      -0.67210000
H       -0.60070000      -0.71390000      -1.29120000
H       -0.46670000      -2.45030000       1.75470000
H       -2.70840000      -2.35410000       2.82150000
H       -3.09050000      -0.85480000       1.93600000
