19
Properties=species:S:1:pos:R:3 gdb_114934=T pbc="F F F"
O        0.26690000       1.03790000      -0.51660000
C       -0.03070000      -0.30290000      -0.15590000
C       -1.52000000      -0.39480000       0.17270000
C       -2.39090000      -0.05540000      -1.06910000
C       -2.83980000      -1.39970000      -1.57150000
C       -2.58300000      -2.38610000      -0.69900000
C       -1.90360000      -1.84960000       0.55310000
C       -2.90870000      -3.75570000      -0.84600000
C       -3.16180000      -4.93180000      -0.92320000
H        1.18240000       1.07640000      -0.80740000
H        0.20500000      -0.99980000      -0.97710000
H        0.55610000      -0.61570000       0.72240000
H       -1.71930000       0.29900000       0.99390000
H       -3.25720000       0.56590000      -0.80200000
H       -1.82480000       0.51980000      -1.80910000
H       -3.34080000      -1.54190000      -2.52210000
H       -1.03300000      -2.45290000       0.83680000
H       -2.59330000      -1.88620000       1.40520000
H       -3.39540000      -5.96400000      -1.00650000
