20
Properties=species:S:1:pos:R:3 gdb_99216=T pbc="F F F"
C       -0.17600000       1.50100000       0.00740000
C        0.14410000       0.00830000       0.03550000
C        0.77940000      -0.44590000       1.34410000
O        1.13060000       0.32380000       2.20360000
C        0.93080000      -1.95640000       1.47850000
O        1.65250000      -2.25420000       2.65860000
C        1.81180000      -3.56320000       2.95100000
C        2.59430000      -3.71060000       4.22970000
N        1.33490000      -4.46610000       2.19590000
H        0.72380000       2.09290000       0.19010000
H       -0.59350000       1.78860000      -0.96130000
H       -0.89870000       1.76070000       0.78550000
H       -0.75270000      -0.59880000      -0.14760000
H        0.83800000      -0.25870000      -0.77450000
H       -0.06180000      -2.42560000       1.50240000
H        1.43600000      -2.37140000       0.59670000
H        2.07520000      -3.20250000       5.04780000
H        2.73000000      -4.76220000       4.48640000
H        3.57420000      -3.23500000       4.12650000
H        1.54510000      -5.38980000       2.56660000
