10
Properties=species:S:1:pos:R:3 gdb_741=T pbc="F F F"
C       -0.01430000       1.48750000       0.02940000
C        0.00050000      -0.00130000      -0.00640000
N       -0.10400000      -0.67880000      -1.12010000
O       -0.04440000      -2.01630000      -0.69950000
C        0.08920000      -1.97780000       0.62490000
N        0.12500000      -0.78630000       1.12700000
H        0.91460000       1.86370000       0.46790000
H       -0.12600000       1.88910000      -0.97850000
H       -0.83950000       1.84170000       0.65400000
H        0.15330000      -2.92460000       1.14140000
