19
Properties=species:S:1:pos:R:3 gdb_39770=T pbc="F F F"
C       -0.01710000       1.52640000       0.03720000
C        1.30960000       0.81400000      -0.05420000
C        0.01090000       0.02020000      -0.04560000
C        0.16280000      -0.65890000      -1.42240000
O        1.57390000      -1.09200000      -1.37750000
C        1.83140000       0.36100000      -1.43350000
C        0.62840000       0.44390000      -2.37770000
C        0.66920000       0.36080000      -3.86460000
C       -0.03360000       1.51830000      -3.17610000
H       -0.26030000       1.93490000       1.01400000
H       -0.38540000       2.11980000      -0.78800000
H        1.99220000       0.81210000       0.78660000
H       -0.29050000      -0.58300000       0.80180000
H       -0.53380000      -1.44780000      -1.70570000
H        2.84840000       0.61950000      -1.72820000
H        1.61040000       0.56180000      -4.36650000
H        0.05640000      -0.38810000      -4.35610000
H       -1.11880000       1.54710000      -3.20600000
H        0.43520000       2.49690000      -3.21630000
