16
Properties=species:S:1:pos:R:3 gdb_3574=T pbc="F F F"
C       -0.01930000       1.60960000       0.05070000
C        0.11530000       0.09400000      -0.07620000
C        0.46930000      -0.74610000      -1.27360000
C        1.79020000      -0.35550000      -1.96670000
C        2.57430000       0.74310000      -1.35500000
N        2.59690000      -0.58690000      -0.71820000
C        1.29000000      -0.86310000      -0.00240000
H        0.16190000       2.12880000      -0.89290000
H       -1.04010000       1.85670000       0.35880000
H        0.65460000       2.02470000       0.80750000
H       -0.69360000      -0.40920000       0.45500000
H       -0.20910000      -1.46300000      -1.71860000
H        2.09320000      -0.81810000      -2.90090000
H        3.52450000       0.96840000      -1.83360000
H        2.12180000       1.58630000      -0.85730000
H        1.32520000      -1.65260000       0.73850000
