21
Properties=species:S:1:pos:R:3 gdb_92562=T pbc="F F F"
O        0.00760000       1.41690000      -0.16380000
C        0.04010000      -0.00540000      -0.03080000
C        0.74110000      -0.51870000       1.25860000
C       -0.37020000      -0.98600000       2.23090000
C       -0.92740000       0.16190000       3.10310000
C       -1.90140000       0.93970000       2.18390000
C       -2.33260000      -0.08940000       1.13640000
C       -1.37460000      -0.55560000       0.04910000
C       -1.55180000      -1.36880000       1.30920000
H        0.91500000       1.72190000      -0.26240000
H        0.53940000      -0.42910000      -0.91470000
H        1.37500000      -1.37300000       0.99670000
H        1.39330000       0.24780000       1.69230000
H       -0.02560000      -1.82100000       2.84600000
H       -1.48380000      -0.26860000       3.94360000
H       -0.13740000       0.79120000       3.52650000
H       -2.76840000       1.30790000       2.74070000
H       -1.41610000       1.79850000       1.71770000
H       -3.38150000      -0.13150000       0.86240000
H       -1.83760000      -0.87610000      -0.87810000
H       -1.99740000      -2.35600000       1.32610000
