17
Properties=species:S:1:pos:R:3 gdb_33258=T pbc="F F F"
O       -0.02200000       1.44530000      -0.05810000
C        0.01800000       0.03410000      -0.00900000
C       -1.37520000      -0.56880000       0.03140000
O       -2.02290000      -0.17900000      -1.17770000
C       -3.31790000      -0.55150000      -1.30030000
C       -4.10910000      -1.27360000      -0.45390000
O       -5.35610000      -1.40610000      -1.00230000
C       -5.34020000      -0.76470000      -2.19400000
C       -4.12200000      -0.21870000      -2.43940000
H       -0.59590000       1.67410000      -0.79810000
H        0.56570000      -0.38730000      -0.86670000
H        0.55820000      -0.24170000       0.90240000
H       -1.33360000      -1.66550000       0.10110000
H       -1.93740000      -0.17840000       0.89120000
H       -3.96020000      -1.73640000       0.50470000
H       -6.26340000      -0.78290000      -2.74930000
H       -3.81400000       0.34650000      -3.30390000
