18
Properties=species:S:1:pos:R:3 gdb_97177=T pbc="F F F"
C        0.66170000       1.36500000      -0.24410000
N        0.23870000      -0.02240000      -0.10720000
C        0.15890000      -0.51310000       1.05220000
C       -0.28270000      -1.93980000       1.27550000
C        0.57770000      -2.68300000       2.29440000
O        0.79460000      -3.86610000       2.23090000
C        1.12240000      -1.79130000       3.40590000
C        0.39710000      -0.44950000       3.43790000
O        0.47350000       0.21250000       2.17080000
H        1.63650000       1.54740000       0.22620000
H        0.73510000       1.61090000      -1.30580000
H       -0.05320000       2.05520000       0.22230000
H       -1.30530000      -1.93670000       1.68530000
H       -0.31090000      -2.47270000       0.32670000
H        1.04850000      -2.31610000       4.36270000
H        2.18950000      -1.62820000       3.20720000
H       -0.65500000      -0.57900000       3.72660000
H        0.85540000       0.23710000       4.15230000
