20
Properties=species:S:1:pos:R:3 gdb_113251=T pbc="F F F"
C        0.22150000       1.12710000      -0.11060000
O       -0.37090000      -0.01930000       0.47230000
C        0.48690000      -0.70050000       1.32580000
C        0.12510000      -2.11440000       1.65560000
C        1.34930000      -1.83680000       0.79960000
C        1.28960000      -2.19500000      -0.67070000
C        2.71560000      -2.01170000       1.45800000
C        3.14570000      -3.41180000       1.50690000
N        3.46870000      -4.52110000       1.53370000
H        1.08950000       0.86770000      -0.73230000
H       -0.53940000       1.59760000      -0.73680000
H        0.54470000       1.84520000       0.65790000
H        0.90920000      -0.07900000       2.11930000
H        0.25580000      -2.46240000       2.67460000
H       -0.74340000      -2.51870000       1.14770000
H        0.31290000      -1.93980000      -1.08670000
H        2.05270000      -1.65390000      -1.24290000
H        1.46040000      -3.26630000      -0.81920000
H        3.47730000      -1.43790000       0.91510000
H        2.70120000      -1.62510000       2.48350000
