13
Properties=species:S:1:pos:R:3 gdb_25305=T pbc="F F F"
O       -0.87400000       1.22280000       0.16560000
C        0.25050000       0.92140000      -0.12410000
C        1.45400000       1.86710000      -0.25620000
O        2.51860000       1.38080000      -0.55900000
N        1.28890000       3.23030000      -0.02820000
C        2.32820000       4.15910000      -0.12650000
C        1.77010000       5.35990000       0.16500000
N        0.41280000       5.22580000       0.44530000
C        0.15010000       3.96110000       0.32540000
H        0.57170000      -0.11610000      -0.34050000
H        3.32100000       3.84080000      -0.38980000
H        2.24970000       6.32590000       0.19490000
H       -0.80150000       3.47950000       0.46730000
