20
Properties=species:S:1:pos:R:3 gdb_107824=T pbc="F F F"
C       -0.02540000       1.55420000      -0.00300000
C       -0.04510000       0.02460000      -0.09670000
C       -1.43290000      -0.55800000       0.03290000
C       -2.21630000      -0.46590000       1.37320000
N       -2.66550000      -1.89710000       1.25860000
C       -3.12080000      -2.09400000      -0.15130000
C       -3.45750000      -0.87450000      -0.99640000
O       -2.25630000      -0.10090000      -1.04120000
C       -1.67870000      -2.08750000       0.13300000
H        0.99260000       1.93850000      -0.11420000
H       -0.64830000       1.99540000      -0.78490000
H       -0.40720000       1.89810000       0.96450000
H        0.37130000      -0.29680000      -1.05920000
H        0.58720000      -0.41250000       0.68520000
H       -1.56740000      -0.38110000       2.24870000
H       -3.01610000       0.27910000       1.43650000
H       -3.67010000      -3.01740000      -0.29420000
H       -3.73470000      -1.16140000      -2.01720000
H       -4.28360000      -0.28680000      -0.57210000
H       -0.98120000      -2.91420000       0.07320000
