19
Properties=species:S:1:pos:R:3 gdb_57966=T pbc="F F F"
C       -0.09480000       1.51010000      -0.27380000
C       -0.06430000       0.01920000       0.08880000
O        0.57760000      -0.18520000       1.32250000
C       -1.47170000      -0.56380000       0.15630000
O       -1.94060000      -1.02380000       1.17110000
O       -2.10140000      -0.51390000      -1.02590000
C       -3.43010000      -1.01800000      -1.06090000
C       -4.54480000      -0.02390000      -1.17290000
C       -4.13020000      -0.86120000      -2.36840000
H        0.92740000       1.89590000      -0.27940000
H       -0.53950000       1.66520000      -1.25990000
H       -0.66750000       2.07080000       0.47120000
H        0.47220000      -0.52490000      -0.70380000
H       -0.08490000      -0.59200000       1.90070000
H       -3.55940000      -1.90900000      -0.46030000
H       -5.47810000      -0.24470000      -0.66790000
H       -4.26860000       1.02410000      -1.18620000
H       -3.58410000      -0.35820000      -3.15810000
H       -4.77640000      -1.66490000      -2.70180000
