21
Properties=species:S:1:pos:R:3 gdb_103745=T pbc="F F F"
C       -0.08100000       1.56420000      -0.00950000
C       -0.20900000       0.06690000       0.20120000
C       -1.40620000      -0.51790000      -0.53780000
O       -1.21970000      -0.40260000      -1.94040000
O        1.00230000      -0.70110000      -0.00690000
C        0.46080000      -0.61750000       1.33470000
C        1.30520000       0.14770000       2.33670000
C        0.01750000      -1.97260000       1.87190000
O        1.14330000      -2.81700000       2.05890000
H        0.90750000       1.93430000       0.25910000
H       -0.26280000       1.79050000      -1.06350000
H       -0.82980000       2.09810000       0.58600000
H       -1.58740000      -1.56040000      -0.25650000
H       -2.30840000       0.05570000      -0.29990000
H       -0.39010000      -0.85250000      -2.14020000
H        1.85990000       0.96120000       1.87090000
H        0.67320000       0.56240000       3.12980000
H        2.01860000      -0.54050000       2.79770000
H       -0.44240000      -1.85100000       2.85840000
H       -0.71790000      -2.44890000       1.21520000
H        1.58530000      -2.87100000       1.20320000
