19
Properties=species:S:1:pos:R:3 gdb_46355=T pbc="F F F"
O        0.25700000       0.07990000      -0.25200000
C        0.06210000       1.24700000      -0.06990000
C       -1.19090000       2.10240000       0.17380000
C       -0.24560000       3.21070000       0.73160000
C        1.00220000       2.44430000       0.17930000
C        2.21540000       2.20240000       1.05640000
C        3.37390000       1.40670000       0.40910000
O        4.26240000       2.54150000       0.49470000
C        3.26010000       3.34050000       1.15050000
H       -1.67830000       2.37930000      -0.76680000
H       -1.94370000       1.67530000       0.84070000
H       -0.40120000       4.21770000       0.34380000
H       -0.25250000       3.24770000       1.82380000
H        1.31650000       2.86080000      -0.78750000
H        1.90280000       1.80900000       2.02750000
H        3.74010000       0.55140000       0.98880000
H        3.20730000       1.08700000      -0.62610000
H        3.02200000       4.25120000       0.58480000
H        3.55960000       3.62490000       2.16740000
