15
Properties=species:S:1:pos:R:3 gdb_9562=T pbc="F F F"
C       -0.03840000       1.54120000      -0.05030000
C        0.01590000       0.02180000      -0.02730000
C        1.34500000      -0.66630000      -0.24050000
C        0.73080000      -0.68740000       1.14440000
C        1.30870000       0.08960000       2.20290000
N        1.77130000       0.72050000       3.05560000
C       -1.16240000      -0.64510000      -0.51660000
C       -2.15430000      -1.18510000      -0.92960000
H        0.87510000       1.97230000       0.36610000
H       -0.15440000       1.89500000      -1.07860000
H       -0.88670000       1.90630000       0.53490000
H        1.35940000      -1.60390000      -0.78200000
H        2.20930000      -0.02950000      -0.38930000
H        0.28690000      -1.62170000       1.46770000
H       -3.02980000      -1.66280000      -1.29450000
