18
Properties=species:S:1:pos:R:3 gdb_29480=T pbc="F F F"
C       -0.01870000       1.52930000       0.00050000
C       -0.00760000       0.03070000       0.02450000
C       -0.02970000      -0.80250000      -1.08240000
N       -0.00940000      -2.12270000      -0.66710000
C        0.02490000      -2.13580000       0.69810000
C        0.02690000      -0.83190000       1.15240000
C        0.06480000      -0.86280000       2.65530000
C        0.08280000      -2.35770000       2.94610000
C        0.05950000      -3.07600000       1.80180000
H        0.87110000       1.95030000       0.48440000
H       -0.04670000       1.90910000      -1.02510000
H       -0.88910000       1.93810000       0.52800000
H       -0.05780000      -0.55670000      -2.13270000
H       -0.02060000      -2.91980000      -1.27790000
H        0.94940000      -0.36780000       3.07990000
H       -0.80430000      -0.38030000       3.12390000
H        0.11090000      -2.76330000       3.94880000
H        0.06540000      -4.15570000       1.72360000
