20
Properties=species:S:1:pos:R:3 gdb_39817=T pbc="F F F"
C        0.03930000       1.44700000      -0.02090000
N        1.26730000       0.61720000       0.05320000
C       -0.03250000      -0.02340000       0.02790000
C       -0.60380000      -0.97240000       1.09130000
C       -1.69550000      -1.32690000       0.03240000
C       -0.61850000      -0.96380000      -1.03210000
O        0.29540000      -2.02550000      -1.27700000
C        0.49840000      -2.87400000      -0.14200000
C        0.39780000      -2.13600000       1.21310000
H       -0.16150000       2.03810000       0.86920000
H       -0.19930000       1.94590000      -0.95790000
H        1.70800000       0.54400000      -0.86170000
H       -0.90900000      -0.56730000       2.05820000
H       -2.11000000      -2.33680000       0.01910000
H       -2.50850000      -0.59780000       0.02400000
H       -0.91800000      -0.57380000      -2.00800000
H       -0.24160000      -3.68610000      -0.17010000
H        1.48310000      -3.33050000      -0.27570000
H        1.36830000      -1.72600000       1.51040000
H        0.08740000      -2.85200000       1.98220000
