19
Properties=species:S:1:pos:R:3 gdb_108074=T pbc="F F F"
O        0.10450000       1.20060000      -0.50770000
C       -0.06980000      -0.03600000       0.17150000
C       -1.49820000      -0.49940000       0.16980000
C       -2.65750000      -0.11610000       1.08950000
C       -3.41620000      -1.30860000       0.44360000
C       -3.63750000      -0.85580000      -1.03220000
C       -2.12420000      -0.96790000      -1.15100000
O       -1.34120000      -0.86020000      -2.28780000
C       -2.02120000      -1.92440000       0.01780000
H       -0.14930000       1.03880000      -1.42370000
H        0.56730000      -0.82020000      -0.26480000
H        0.27440000       0.12980000       1.19810000
H       -2.40690000      -0.30840000       2.13720000
H       -3.10540000       0.87950000       0.99410000
H       -4.20190000      -1.83920000       0.97560000
H       -4.14530000      -1.62950000      -1.61790000
H       -4.11640000       0.11550000      -1.20110000
H       -1.55950000      -1.58020000      -2.88940000
H       -1.54540000      -2.88440000       0.15760000
