18
Properties=species:S:1:pos:R:3 gdb_85545=T pbc="F F F"
O       -0.04740000       1.46420000       0.02770000
C       -0.04930000       0.04300000      -0.01430000
C        0.79330000      -0.55140000       1.12380000
C        0.60430000      -2.03620000       1.31050000
N        1.58460000      -2.80190000       1.54640000
O       -0.67480000      -2.51570000       1.26910000
C       -1.73320000      -1.74400000       0.73910000
C       -2.20080000      -0.48120000       1.40160000
C       -1.47960000      -0.42810000       0.06530000
H        0.85370000       1.76520000      -0.13050000
H        0.36380000      -0.30570000      -0.97440000
H        1.85830000      -0.37440000       0.96230000
H        0.51690000      -0.03730000       2.05200000
H        1.25610000      -3.76230000       1.67000000
H       -2.47160000      -2.41830000       0.32160000
H       -3.26550000      -0.27720000       1.41530000
H       -1.67080000      -0.14300000       2.28380000
H       -2.07830000      -0.19700000      -0.80970000
