20
Properties=species:S:1:pos:R:3 gdb_22271=T pbc="F F F"
C        0.06320000       1.43480000      -0.31290000
C        0.16780000      -0.04140000      -0.03060000
O        1.48440000      -0.59110000       0.16130000
C        0.55280000      -0.63830000       1.25920000
C        0.92310000       0.18060000       2.47790000
C        0.08490000      -2.03490000       1.56880000
C        1.09720000      -3.04020000       2.04500000
N       -1.16180000      -2.26070000       1.40680000
O       -1.50540000      -3.57700000       1.75140000
H        0.70410000       2.02910000       0.34080000
H        0.35680000       1.63780000      -1.34810000
H       -0.97240000       1.76900000      -0.18840000
H       -0.46840000      -0.66270000      -0.66090000
H        1.35290000       1.14260000       2.19490000
H        0.04050000       0.35330000       3.10220000
H        1.66470000      -0.35080000       3.08370000
H        1.06610000      -3.14130000       3.13620000
H        0.87570000      -4.02430000       1.62680000
H        2.10310000      -2.73490000       1.75020000
H       -2.44420000      -3.60240000       1.53860000
