14
Properties=species:S:1:pos:R:3 gdb_130959=T pbc="F F F"
O        0.09640000      -0.13470000       0.27960000
C        0.06040000       0.97310000      -0.18070000
C        1.21000000       1.96890000      -0.06120000
N        1.26450000       2.89920000      -1.16250000
C        1.62920000       2.68380000      -2.47090000
N        1.57220000       3.76150000      -3.18730000
N        1.14740000       4.72480000      -2.30180000
C        0.94180000       4.26260000      -1.02360000
O        0.58230000       4.83670000      -0.01750000
H       -0.82900000       1.36680000      -0.72230000
H        1.03650000       2.57820000       0.83610000
H        2.15100000       1.42620000       0.06540000
H        1.93420000       1.72130000      -2.85170000
H        1.02900000       5.67480000      -2.60700000
