14
Properties=species:S:1:pos:R:3 gdb_44268=T pbc="F F F"
O       -0.37550000       0.29150000      -0.50240000
C       -0.11460000       1.35800000      -0.05330000
O       -0.94160000       2.21330000       0.63340000
C        0.12440000       3.22080000       0.75290000
C        1.10240000       2.29300000       0.01830000
C        1.47760000       2.99580000      -1.30230000
N        0.56100000       4.12410000      -1.34360000
C       -0.13490000       4.39870000      -0.19590000
O       -0.82970000       5.36360000       0.01740000
H        0.27650000       3.51090000       1.79040000
H        1.95250000       1.88290000       0.56040000
H        2.52300000       3.32730000      -1.28520000
H        1.34770000       2.33180000      -2.16330000
H        0.53350000       4.77400000      -2.11390000
