16
Properties=species:S:1:pos:R:3 gdb_23410=T pbc="F F F"
O       -0.12730000       1.34930000      -0.12490000
N       -0.00270000      -0.04940000      -0.12930000
C       -1.13130000      -0.62250000       0.05470000
C       -2.46370000      -0.04540000       0.26780000
C       -3.37020000      -1.00890000       0.49170000
C       -2.75000000      -2.38090000       0.45110000
O       -2.99210000      -3.08510000      -0.79660000
C       -1.64370000      -2.82850000      -1.24540000
C       -1.26720000      -2.12360000       0.08460000
H        0.78160000       1.63430000      -0.26530000
H       -2.64850000       1.01910000       0.23420000
H       -4.43000000      -0.85120000       0.65510000
H       -2.99530000      -3.01060000       1.31290000
H       -1.10260000      -3.76060000      -1.44170000
H       -1.61180000      -2.19400000      -2.13860000
H       -0.49320000      -2.62070000       0.66670000
