13
Properties=species:S:1:pos:R:3 gdb_129123=T pbc="F F F"
N       -0.04990000       1.30240000       0.22470000
C        0.03590000       0.04810000       0.03780000
N        1.23780000      -0.64280000      -0.16220000
C        1.20980000      -1.92860000      -0.10570000
C       -0.01180000      -2.67320000       0.09190000
N       -1.16010000      -2.08280000       0.11630000
N       -1.15570000      -0.73880000       0.02420000
C       -2.43620000      -0.11170000      -0.07260000
O       -3.46700000      -0.71400000      -0.01250000
H        0.88160000       1.70910000       0.15240000
H        2.14820000      -2.46560000      -0.24250000
H       -0.01650000      -3.75450000       0.17030000
H       -2.31870000       0.96970000      -0.21110000
