16
Properties=species:S:1:pos:R:3 gdb_29333=T pbc="F F F"
C        0.10740000       1.48280000       0.07540000
C       -0.01410000       0.00420000       0.04460000
C       -1.10330000      -0.82740000      -0.04690000
C       -2.46530000      -0.47000000      -0.13220000
C       -3.64170000      -0.21130000      -0.19500000
C       -0.58430000      -2.18120000      -0.02570000
N       -1.36940000      -3.32340000      -0.16710000
C        0.76530000      -2.05650000       0.07950000
O        1.11590000      -0.72440000       0.12180000
H        0.71360000       1.85040000      -0.76040000
H       -0.88550000       1.93160000       0.00810000
H        0.58350000       1.82530000       1.00120000
H       -4.67250000       0.03280000      -0.26320000
H       -2.32570000      -3.17310000       0.12700000
H       -0.98590000      -4.14690000       0.27540000
H        1.57820000      -2.75970000       0.12760000
