16
Properties=species:S:1:pos:R:3 gdb_46632=T pbc="F F F"
O       -0.08240000      -0.02860000       0.24330000
C       -0.01110000       1.16750000       0.10070000
N       -1.07480000       2.04080000       0.00830000
C       -0.74700000       3.47090000      -0.03380000
C        0.71390000       3.40430000       0.29910000
C        1.57130000       3.99470000       1.11910000
C        2.76170000       3.07640000       1.30030000
O        2.36860000       1.82460000       0.71840000
C        1.24000000       2.05640000      -0.09540000
H       -2.02100000       1.69340000       0.02040000
H       -0.94220000       3.89880000      -1.02800000
H       -1.32440000       4.04350000       0.69970000
H        1.45090000       4.92720000       1.65540000
H        3.67450000       3.45300000       0.81000000
H        2.99970000       2.91580000       2.35980000
H        1.51300000       1.98550000      -1.16450000
