17
Properties=species:S:1:pos:R:3 gdb_76456=T pbc="F F F"
C        0.01270000       1.61110000       0.31640000
C        0.08530000       0.10750000       0.19900000
N        1.25990000      -0.63050000      -0.15490000
C        2.53580000       0.02090000      -0.45080000
C        0.79380000      -0.78570000       1.24170000
C        1.48010000      -0.15920000       2.41850000
O        2.11450000       0.86850000       2.39360000
C        0.21710000      -2.08100000       1.53880000
N       -0.25540000      -3.10140000       1.80760000
H        0.85460000       2.03200000       0.86390000
H       -0.01410000       2.04860000      -0.68760000
H       -0.91350000       1.89510000       0.82450000
H       -0.82570000      -0.35210000      -0.18470000
H        2.78460000       0.86740000       0.19340000
H        3.32570000      -0.72990000      -0.36660000
H        2.49260000       0.35130000      -1.49270000
H        1.36240000      -0.74280000       3.35450000
