22
Properties=species:S:1:pos:R:3 gdb_58903=T pbc="F F F"
C        0.12320000       1.51580000      -0.01480000
C       -0.01860000      -0.00670000      -0.02270000
O        0.79490000      -0.62280000       0.97540000
C       -1.46190000      -0.47600000       0.09360000
C       -1.94660000      -1.61390000      -0.73050000
N       -2.33730000      -0.23560000      -1.07320000
C       -3.66290000       0.14730000      -0.55150000
C       -3.71820000      -0.23330000       0.94740000
C       -2.23620000      -0.20750000       1.38260000
H        1.17150000       1.79340000      -0.15380000
H       -0.47030000       1.95590000      -0.82110000
H       -0.21580000       1.94960000       0.93380000
H        0.37450000      -0.38290000      -0.97320000
H        0.58380000      -0.21020000       1.81970000
H       -1.27310000      -2.08130000      -1.44370000
H       -2.69450000      -2.28650000      -0.31720000
H       -3.75920000       1.23130000      -0.67910000
H       -4.45390000      -0.32470000      -1.14300000
H       -4.33810000       0.45530000       1.52660000
H       -4.14310000      -1.23150000       1.08480000
H       -2.01660000      -0.93960000       2.16520000
H       -1.97080000       0.78070000       1.77590000
