18
Properties=species:S:1:pos:R:3 gdb_50865=T pbc="F F F"
O        0.82850000       0.02110000      -0.05190000
C        0.43100000       1.15520000      -0.08300000
C        0.82810000       2.15960000      -1.15590000
C        1.06380000       3.54170000      -0.55490000
O        0.27510000       4.03100000       0.22000000
C        2.36250000       4.25550000      -0.92590000
N        2.69050000       4.09210000      -2.33370000
C        2.20850000       5.13620000      -3.23740000
C        3.65230000       5.03910000      -2.88730000
H       -0.26710000       1.55950000       0.67860000
H        1.67470000       1.79560000      -1.73750000
H       -0.03390000       2.25550000      -1.83180000
H        2.27170000       5.30380000      -0.60070000
H        3.16380000       3.79070000      -0.33230000
H        1.85170000       4.79390000      -4.20410000
H        1.64570000       5.96230000      -2.80650000
H        4.05510000       5.80250000      -2.22430000
H        4.36570000       4.62490000      -3.59350000
