20
Properties=species:S:1:pos:R:3 gdb_111360=T pbc="F F F"
C        0.04830000       1.56390000      -0.04540000
C        0.03920000       0.03720000      -0.18040000
C       -1.34280000      -0.57720000       0.01360000
C       -1.52030000      -2.09640000      -0.11330000
C       -0.84900000      -2.83260000       1.01240000
C       -2.17460000      -2.17700000       1.26520000
C       -1.99700000      -0.65980000       1.46280000
C       -1.19800000      -0.23900000       2.60640000
N       -0.54310000       0.08670000       3.50290000
H        1.05040000       1.96660000      -0.21970000
H       -0.62900000       2.02940000      -0.77050000
H       -0.26220000       1.87710000       0.95600000
H        0.39430000      -0.24880000      -1.17910000
H        0.74800000      -0.39890000       0.53250000
H       -2.05910000      -0.06280000      -0.63520000
H       -1.81440000      -2.60110000      -1.02540000
H       -0.88570000      -3.91420000       0.93660000
H        0.05330000      -2.45410000       1.48450000
H       -3.04950000      -2.72720000       1.58610000
H       -2.95050000      -0.12800000       1.48860000
