19
Properties=species:S:1:pos:R:3 gdb_111995=T pbc="F F F"
C        0.07740000       1.57920000       0.44270000
C        0.14710000       0.10330000       0.12820000
C        0.56400000      -0.52140000      -1.15730000
C        1.39910000       0.21400000      -2.20710000
C        0.77460000       1.38250000      -2.97800000
O        1.70940000       1.93040000      -3.88300000
N        2.60250000       0.67250000      -1.47530000
C        2.53360000       0.18610000      -0.30150000
N        1.43970000      -0.65550000       0.04560000
H        0.86530000       2.15850000      -0.04040000
H       -0.88810000       1.97980000       0.11660000
H        0.15170000       1.73610000       1.52420000
H       -0.58420000      -0.47790000       0.68710000
H        0.05750000      -1.43070000      -1.46540000
H        1.73250000      -0.51000000      -2.96320000
H       -0.07560000       1.02470000      -3.56900000
H        0.39520000       2.14240000      -2.27950000
H        2.52340000       2.05220000      -3.37780000
H        3.29270000       0.36390000       0.45540000
