21
Properties=species:S:1:pos:R:3 gdb_114539=T pbc="F F F"
O       -0.15260000       1.50780000       0.17740000
C       -0.00750000       0.09600000       0.13950000
C       -1.39520000      -0.52560000      -0.04130000
C       -2.08210000      -0.03480000      -1.35620000
C       -2.22840000      -1.16330000      -2.36900000
C       -0.96770000      -2.04630000      -2.46660000
C       -1.63910000      -2.75180000      -1.27200000
C       -1.31800000      -2.08220000       0.06120000
O       -2.93540000      -2.26360000      -1.72050000
H        0.72270000       1.90050000       0.23800000
H        0.66110000      -0.20960000      -0.68220000
H        0.43560000      -0.27970000       1.07590000
H       -1.98660000      -0.15500000       0.80110000
H       -3.08410000       0.34630000      -1.13550000
H       -1.51580000       0.80150000      -1.77940000
H       -2.72280000      -0.84670000      -3.29190000
H       -0.97290000      -2.66890000      -3.36270000
H        0.01380000      -1.58820000      -2.33030000
H       -1.60630000      -3.84370000      -1.21570000
H       -0.32320000      -2.39610000       0.40460000
H       -2.03590000      -2.44880000       0.80170000
