17
Properties=species:S:1:pos:R:3 gdb_85214=T pbc="F F F"
C       -0.37290000       1.27280000       0.34460000
C        0.14380000      -0.13310000       0.16910000
O        1.21100000      -0.21710000      -0.85590000
C        2.13760000      -0.60760000       0.07340000
N        3.38010000      -0.76620000       0.00620000
C        1.14800000      -0.70100000       1.21480000
N        1.50550000       0.07460000       2.37390000
C        0.70430000       0.10700000       3.47220000
O       -0.40040000      -0.39260000       3.51730000
H        0.43580000       1.96120000       0.60340000
H       -0.84800000       1.62030000      -0.57700000
H       -1.11350000       1.28700000       1.14950000
H       -0.65370000      -0.83320000      -0.08970000
H        3.73610000      -0.57280000      -0.93130000
H        0.89720000      -1.72650000       1.50060000
H        2.44830000       0.43030000       2.42400000
H        1.16590000       0.65250000       4.31730000
