17
Properties=species:S:1:pos:R:3 gdb_14685=T pbc="F F F"
C        0.03690000       1.38160000       0.06370000
O        0.06700000      -0.03870000      -0.02700000
C       -1.13020000      -0.64970000       0.00030000
N       -1.21350000      -1.90290000      -0.08900000
C       -2.53860000      -2.48660000      -0.05420000
C       -2.82060000      -3.24950000      -1.36200000
C       -4.07500000      -4.08430000      -1.26920000
O       -5.01080000      -4.01710000      -2.02370000
H        1.07620000       1.71100000       0.05380000
H       -0.48910000       1.82690000      -0.78930000
H       -0.43620000       1.71420000       0.99550000
H       -1.99070000       0.03020000       0.10940000
H       -2.57960000      -3.19560000       0.78370000
H       -3.33310000      -1.73960000       0.11620000
H       -2.90350000      -2.56640000      -2.21130000
H       -1.97260000      -3.92400000      -1.54260000
H       -4.08240000      -4.80250000      -0.41420000
