10
Properties=species:S:1:pos:R:3 gdb_3916=T pbc="F F F"
O       -0.04930000      -0.02770000      -0.00120000
C       -0.00270000       1.18100000       0.00790000
C        1.24020000       1.95490000      -0.00020000
C        2.52410000       1.48080000      -0.01830000
O        3.39310000       2.48360000      -0.02030000
N        2.69560000       3.70200000      -0.00300000
C        1.43240000       3.36950000       0.00840000
H       -0.92920000       1.79450000       0.02270000
H        2.93100000       0.48170000      -0.03060000
H        0.68510000       4.15090000       0.02280000
