14
Properties=species:S:1:pos:R:3 gdb_9595=T pbc="F F F"
O        0.00500000       1.39050000      -0.05160000
C        0.03600000      -0.01090000      -0.01790000
C       -0.49480000      -0.69520000       1.21250000
C       -1.34070000      -0.67240000      -0.05390000
C       -2.55810000       0.18280000      -0.08550000
O       -3.55980000      -0.11320000      -0.68790000
C        1.10540000      -0.62510000      -0.76180000
C        2.02280000      -1.11130000      -1.36810000
H        0.82380000       1.71120000       0.34360000
H       -0.06830000      -1.64340000       1.51590000
H       -0.80690000      -0.03690000       2.01680000
H       -1.42290000      -1.58800000      -0.62690000
H       -2.48560000       1.11970000       0.50390000
H        2.82410000      -1.54340000      -1.91550000
