18
Properties=species:S:1:pos:R:3 gdb_93266=T pbc="F F F"
C        0.54370000       1.50770000       0.10290000
C        0.02290000       0.07140000      -0.03370000
O       -1.38270000       0.05780000      -0.18000000
C        0.71210000      -0.71750000      -1.16820000
O        1.10710000       0.02000000      -2.30230000
C        1.96620000      -1.30890000      -0.49220000
N        1.54410000      -1.44290000       0.89520000
C        0.41680000      -0.75160000       1.20480000
O       -0.20910000      -0.76400000       2.24630000
H        1.63480000       1.54550000       0.17680000
H        0.24110000       2.09160000      -0.76930000
H        0.11690000       1.96370000       1.00040000
H       -1.73550000      -0.01630000       0.71930000
H        0.02910000      -1.53430000      -1.44130000
H        0.31050000       0.28700000      -2.77250000
H        2.25100000      -2.27420000      -0.91930000
H        2.81100000      -0.61850000      -0.60950000
H        1.99850000      -2.04140000       1.56670000
