16
Properties=species:S:1:pos:R:3 gdb_83107=T pbc="F F F"
O       -0.11650000       1.50770000      -0.29880000
C        0.03100000       0.13380000      -0.03880000
C       -1.30650000      -0.66730000      -0.05410000
C       -2.59960000      -0.03910000      -0.61820000
N       -2.78950000      -0.63900000      -1.95750000
C       -1.77440000      -1.34940000      -2.22560000
N       -0.78410000      -1.47410000      -1.20940000
C        0.42020000      -0.69560000      -1.26410000
N        1.40820000      -0.60780000      -2.03640000
H        0.63650000       1.77740000      -0.83810000
H        0.65110000      -0.04650000       0.84920000
H       -1.47270000      -1.27560000       0.83640000
H       -3.46770000      -0.25710000       0.00850000
H       -2.52510000       1.04740000      -0.72680000
H       -1.62950000      -1.86170000      -3.17120000
H        1.35640000      -1.25690000      -2.82320000
