16
Properties=species:S:1:pos:R:3 gdb_31571=T pbc="F F F"
C        0.13960000       1.41110000      -0.08250000
O        0.03110000      -0.01010000      -0.05380000
C        0.58200000      -0.68220000      -1.07120000
C        0.62470000      -2.02520000      -1.28900000
C        1.33790000      -2.17200000      -2.52900000
O        1.63640000      -3.33410000      -3.16620000
C        1.67980000      -0.93550000      -2.98260000
N        2.36080000      -0.49890000      -4.10470000
O        1.19250000       0.00890000      -2.04490000
H        1.18710000       1.72920000      -0.07260000
H       -0.34920000       1.82840000      -0.96880000
H       -0.36340000       1.76300000       0.81860000
H        0.20970000      -2.79510000      -0.65940000
H        1.28770000      -4.06310000      -2.64580000
H        3.23000000      -0.01700000      -3.90190000
H        1.80470000       0.07150000      -4.73260000
