18
Properties=species:S:1:pos:R:3 gdb_15408=T pbc="F F F"
C        0.08480000       1.46010000       0.19610000
C       -0.12490000      -0.01210000       0.50000000
O        1.13820000      -0.58560000       0.82560000
C        1.08280000      -1.94590000       1.07330000
C        2.15850000      -2.52090000       1.90500000
C        0.73710000      -2.46300000       2.47980000
C        0.47180000      -1.49910000       3.56830000
O       -0.31160000      -1.68620000       4.46890000
H        0.77450000       1.58600000      -0.64310000
H       -0.86770000       1.93200000      -0.06180000
H        0.50260000       1.97630000       1.06490000
H       -0.82320000      -0.14530000       1.34010000
H       -0.55470000      -0.53480000      -0.36900000
H        0.68040000      -2.54360000       0.25380000
H        2.56110000      -3.49650000       1.66090000
H        2.87220000      -1.81830000       2.32270000
H        0.17510000      -3.38780000       2.54840000
H        1.06300000      -0.55900000       3.50320000
