18
Properties=species:S:1:pos:R:3 gdb_14666=T pbc="F F F"
C       -0.70000000       1.17790000      -0.36480000
C        0.48610000       0.34130000       0.14840000
C        1.24470000      -0.29570000      -0.92340000
C        1.85280000      -0.81390000      -1.82340000
C        2.60390000      -1.44390000      -2.91270000
C        2.19600000      -2.82320000      -3.19260000
C        1.86550000      -3.95570000      -3.42680000
C        1.46210000      -5.32630000      -3.70680000
H       -0.35440000       1.97640000      -1.02700000
H       -1.40020000       0.55400000      -0.92690000
H       -1.23770000       1.63270000       0.47260000
H        1.15570000       0.97930000       0.73970000
H        0.11900000      -0.42880000       0.83910000
H        2.49700000      -0.84000000      -3.82520000
H        3.67700000      -1.42220000      -2.67480000
H        1.10020000      -5.43410000      -4.73530000
H        2.29720000      -6.02320000      -3.57490000
H        0.65590000      -5.64600000      -3.03730000
