21
Properties=species:S:1:pos:R:3 gdb_88548=T pbc="F F F"
C       -0.21970000       1.47390000      -0.20460000
C       -0.07300000      -0.00540000       0.05910000
N        1.24780000      -0.61430000      -0.17370000
C        0.69590000      -0.59820000       1.19270000
C        1.44040000       0.17020000       2.22490000
C        2.43520000       1.32530000       2.00740000
C        3.27160000       0.80160000       3.22090000
C        2.24990000      -0.32800000       3.39890000
N        0.89870000       0.19020000       3.58200000
H        0.68720000       2.01850000       0.06300000
H       -0.41740000       1.65560000      -1.26680000
H       -1.05660000       1.88810000       0.36810000
H       -0.93690000      -0.59400000      -0.25050000
H        1.15870000      -1.53800000      -0.58670000
H        0.29330000      -1.52910000       1.58950000
H        2.97130000       1.23730000       1.06140000
H        2.01530000       2.33380000       2.08860000
H        4.26010000       0.44790000       2.91880000
H        3.38780000       1.47290000       4.07890000
H        2.45190000      -1.34090000       3.73090000
H        0.88420000       1.12330000       3.99130000
