23
Properties=species:S:1:pos:R:3 gdb_104074=T pbc="F F F"
C       -0.25900000       1.63270000      -0.30790000
O       -0.21530000       0.24280000      -0.07890000
C        0.66520000      -0.51360000      -0.90820000
C        0.29980000      -0.38850000      -2.39290000
C        2.17360000      -0.17030000      -0.68060000
C        2.83440000      -1.52250000      -0.61770000
C        1.95710000      -2.52070000      -0.48940000
C        2.25450000      -3.98040000      -0.35580000
C        0.54240000      -1.99020000      -0.45030000
H        0.73520000       2.09950000      -0.24680000
H       -0.70080000       1.88920000      -1.28100000
H       -0.88830000       2.05960000       0.47750000
H        0.47790000       0.62000000      -2.77810000
H        0.91420000      -1.07800000      -2.98000000
H       -0.75340000      -0.64160000      -2.54960000
H        2.58370000       0.47280000      -1.46870000
H        2.29350000       0.37290000       0.26690000
H        3.91250000      -1.64770000      -0.63990000
H        3.32930000      -4.17850000      -0.39270000
H        1.86740000      -4.37880000       0.59100000
H        1.77220000      -4.55930000      -1.15400000
H        0.13390000      -2.01980000       0.56810000
H       -0.14770000      -2.56280000      -1.08260000
