19
Properties=species:S:1:pos:R:3 gdb_110717=T pbc="F F F"
O        0.28930000       0.73250000       0.96180000
C       -0.05880000       0.38050000      -0.37340000
C       -1.39460000      -0.32950000      -0.31020000
C       -2.02620000      -1.00770000      -1.57220000
C       -0.99600000      -2.08340000      -1.89730000
C       -0.67490000      -2.58680000      -0.69670000
C       -1.52900000      -1.78200000       0.27220000
C       -2.90050000      -1.84920000      -0.53520000
O       -4.05060000      -1.28510000       0.01410000
H        1.16130000       1.13730000       0.94680000
H       -0.15640000       1.27760000      -1.00780000
H        0.69880000      -0.26970000      -0.82890000
H       -2.09870000       0.35710000       0.17690000
H       -2.47880000      -0.43580000      -2.38240000
H       -0.67580000      -2.38640000      -2.88400000
H       -0.01760000      -3.40640000      -0.44380000
H       -1.47310000      -1.98910000       1.33970000
H       -3.18360000      -2.84440000      -0.88260000
H       -3.84550000      -0.41730000       0.37700000
