11
Properties=species:S:1:pos:R:3 gdb_21439=T pbc="F F F"
N       -0.02630000       1.24290000       0.36900000
C       -0.03140000       0.04520000      -0.02250000
O        1.12690000      -0.57350000      -0.45030000
N        1.17980000      -1.90800000      -0.89790000
C        0.07080000      -2.54190000      -0.89010000
N       -1.14560000      -2.04360000      -0.49050000
C       -1.31750000      -0.74680000      -0.03230000
O       -2.38620000      -0.31960000       0.31570000
H        0.91650000       1.63570000       0.31460000
H        0.09860000      -3.57010000      -1.23240000
H       -1.97360000      -2.62260000      -0.51920000
