19
Properties=species:S:1:pos:R:3 gdb_42029=T pbc="F F F"
C        0.01290000       1.39380000       0.06930000
C        1.47730000       1.91860000      -0.01800000
C        2.22280000       0.68300000       0.45400000
O        3.57780000       0.52780000       0.09740000
C        3.99690000      -0.75720000       0.56190000
C        3.08930000      -1.89290000       0.05930000
O        1.70930000      -1.66390000       0.35530000
C        1.38020000      -0.41300000      -0.18110000
O        0.06170000      -0.05150000       0.09650000
H       -0.48670000       1.72490000       0.98520000
H       -0.58850000       1.72100000      -0.78590000
H        1.75580000       2.15780000      -1.04880000
H        1.63900000       2.80530000       0.59730000
H        2.10740000       0.57210000       1.54580000
H        5.01700000      -0.90920000       0.19830000
H        4.01100000      -0.76250000       1.66320000
H        3.21990000      -2.00980000      -1.02820000
H        3.36240000      -2.83260000       0.54640000
H        1.56830000      -0.43430000      -1.27610000
