18
Properties=species:S:1:pos:R:3 gdb_9614=T pbc="F F F"
C       -0.25720000       1.55520000       0.09540000
C        0.17870000       0.09720000      -0.09000000
C        0.79880000      -0.49500000       1.15880000
O        1.99360000       0.11740000       1.57270000
C       -0.06360000      -1.09070000       2.23720000
C        0.82410000      -1.99540000       1.37590000
C        0.24780000      -2.90840000       0.43480000
C       -0.23160000      -3.68250000      -0.35210000
H        0.59550000       2.19790000       0.34110000
H       -0.70440000       1.94930000      -0.82150000
H       -0.99740000       1.65150000       0.89750000
H       -0.67670000      -0.51690000      -0.38750000
H        0.91230000       0.02920000      -0.90220000
H        1.76990000       0.97200000       1.95730000
H        0.24690000      -0.95320000       3.26680000
H       -1.13390000      -1.15020000       2.07470000
H        1.72980000      -2.34040000       1.86510000
H       -0.65000000      -4.36600000      -1.04810000
