18
Properties=species:S:1:pos:R:3 gdb_11595=T pbc="F F F"
C        0.23830000       1.36990000      -0.15550000
C        0.02360000      -0.10830000       0.07030000
O       -0.09700000      -0.64390000       1.14360000
O       -0.01670000      -0.76890000      -1.10470000
C       -0.23130000      -2.19420000      -1.01420000
C       -0.23450000      -2.75530000      -2.40500000
C        1.06790000      -3.08540000      -3.08790000
C        0.16590000      -4.19530000      -2.61270000
H        0.28920000       1.88000000       0.80550000
H        1.16200000       1.53470000      -0.71720000
H       -0.58150000       1.78020000      -0.75220000
H        0.56420000      -2.63750000      -0.40540000
H       -1.17860000      -2.37380000      -0.49520000
H       -1.03190000      -2.37740000      -3.03820000
H        1.14680000      -2.90400000      -4.15360000
H        1.98540000      -2.90560000      -2.53730000
H        0.47710000      -4.76690000      -1.74450000
H       -0.37880000      -4.77360000      -3.35010000
