16
Properties=species:S:1:pos:R:3 gdb_33805=T pbc="F F F"
N        0.01780000      -1.14030000      -0.01800000
C        0.00500000       0.01540000      -0.00730000
C       -0.00940000       1.46640000       0.00340000
C       -0.65760000       2.18250000       1.23870000
C       -0.35410000       3.58800000       0.64020000
C        1.16300000       3.42060000       0.42170000
C        1.37690000       2.16310000       0.04420000
C       -1.04210000       3.40720000      -0.72770000
C       -0.84340000       2.14960000      -1.11290000
H       -1.72350000       1.96700000       1.33720000
H       -0.12580000       1.97660000       2.16990000
H       -0.66160000       4.45660000       1.22010000
H        1.88740000       4.21780000       0.51430000
H        2.29610000       1.67380000      -0.24340000
H       -1.54050000       4.19710000      -1.27250000
H       -1.12940000       1.65310000      -2.02870000
