17
Properties=species:S:1:pos:R:3 gdb_123822=T pbc="F F F"
C       -0.02440000       1.49670000       0.08940000
C        1.38170000       2.13140000      -0.04400000
C        2.16350000       1.36970000      -1.06520000
C        1.96410000       0.02510000      -1.33590000
C        2.96920000      -0.29760000      -2.27710000
N        3.73020000       0.75400000      -2.57050000
N        3.22110000       1.75480000      -1.81110000
C        0.89930000      -0.69980000      -0.66170000
C       -0.01800000      -0.01900000       0.04000000
H       -0.49360000       1.84860000       1.01350000
H       -0.65970000       1.86630000      -0.73080000
H        1.29450000       3.19410000      -0.29360000
H        1.90420000       2.07790000       0.92290000
H        3.16400000      -1.24530000      -2.75860000
H        3.64490000       2.66580000      -1.86650000
H        0.86160000      -1.78240000      -0.73240000
H       -0.82820000      -0.53950000       0.54070000
