21
Properties=species:S:1:pos:R:3 gdb_63035=T pbc="F F F"
C       -0.03940000       1.57130000       0.01550000
C        0.07350000       0.06470000       0.06670000
O       -1.08830000      -0.59320000      -0.39120000
C        1.33360000      -0.72050000      -0.21410000
C        2.59360000      -0.04780000       0.35130000
C        1.92570000      -0.05260000       1.74520000
C        2.60470000      -0.41890000       3.02970000
C        2.02500000       0.96680000       2.84560000
C        0.68630000      -0.72280000       1.18930000
H        0.83450000       2.06670000       0.44210000
H       -0.14740000       1.91380000      -1.02170000
H       -0.92450000       1.89740000       0.57080000
H       -1.16680000      -0.42150000      -1.33620000
H        1.32120000      -1.51400000      -0.95180000
H        3.46950000      -0.70150000       0.31140000
H        2.86450000       0.92480000      -0.07450000
H        2.09280000      -1.10040000       3.70200000
H        3.68500000      -0.52740000       3.02410000
H        2.71720000       1.79310000       2.71620000
H        1.12380000       1.22170000       3.39380000
H        0.11650000      -1.50850000       1.67180000
