12
Properties=species:S:1:pos:R:3 gdb_1844=T pbc="F F F"
N        0.06600000       1.35180000       0.13530000
C       -0.04550000      -0.00170000       0.03990000
C       -1.12850000      -0.80260000       0.02300000
C       -0.68650000      -2.19520000      -0.02630000
O       -1.30930000      -3.21860000      -0.05760000
O        0.70890000      -2.20240000      -0.04010000
C        1.18800000      -0.87310000       0.00730000
H        0.93100000       1.78270000      -0.14880000
H       -0.75540000       1.91050000      -0.03210000
H       -2.17160000      -0.52740000       0.03990000
H        1.80950000      -0.66950000      -0.87580000
H        1.80840000      -0.72900000       0.90150000
