17
Properties=species:S:1:pos:R:3 gdb_65971=T pbc="F F F"
C       -0.14060000       1.63910000       0.04830000
C        0.05990000       0.13690000       0.01750000
O        1.19060000      -0.27510000      -0.79870000
C        1.85960000      -0.93360000       0.30160000
C        0.73250000      -0.52820000       1.23920000
C        0.67980000      -0.20200000       2.66000000
O        0.08400000      -1.40200000       2.13410000
C       -1.19680000      -0.61610000      -0.41280000
O       -2.31540000      -0.20190000      -0.26550000
H        0.72900000       2.13920000       0.48120000
H       -0.28970000       2.01520000      -0.96800000
H       -1.03310000       1.88070000       0.63100000
H        1.95050000      -2.01590000       0.15130000
H        2.84860000      -0.50450000       0.50000000
H        1.56140000      -0.35560000       3.28060000
H       -0.02360000       0.54690000       3.01950000
H       -0.98030000      -1.60090000      -0.88120000
