21
Properties=species:S:1:pos:R:3 gdb_53384=T pbc="F F F"
C        0.30470000       1.47250000      -0.54400000
C        0.17840000       0.05230000      -0.24790000
C        0.08580000      -1.12540000      -0.00820000
C       -0.04930000      -2.53390000       0.29870000
C       -0.14300000      -3.00020000       1.78670000
C       -1.17740000      -4.06920000       1.35230000
C       -1.40470000      -3.27450000       0.02810000
C       -2.63290000      -2.37560000       0.05630000
O       -1.33530000      -4.01480000      -1.17410000
H        1.35030000       1.79730000      -0.49760000
H       -0.06720000       1.70460000      -1.54830000
H       -0.26240000       2.08350000       0.16730000
H        0.72620000      -3.11350000      -0.21350000
H        0.78390000      -3.34730000       2.24560000
H       -0.58010000      -2.22530000       2.42020000
H       -0.70730000      -5.03100000       1.13300000
H       -2.04450000      -4.22960000       1.99810000
H       -2.67040000      -1.77230000       0.96780000
H       -2.62770000      -1.69660000      -0.80060000
H       -3.54620000      -2.98360000       0.02330000
H       -2.21610000      -4.34710000      -1.37770000
