21
Properties=species:S:1:pos:R:3 gdb_92271=T pbc="F F F"
C        0.14860000       1.54790000      -0.14330000
C        0.05390000       0.05150000       0.06500000
O        0.91000000      -0.69190000      -0.83530000
C        1.40740000      -1.52950000       0.23120000
C        2.92710000      -1.41300000       0.41550000
C        3.05680000      -0.30090000       1.43170000
C        1.87830000       0.10990000       1.90180000
C        0.71320000      -0.63790000       1.30310000
C       -0.22930000      -1.25480000       2.32790000
H        1.17410000       1.89730000       0.00110000
H       -0.16450000       1.80230000      -1.16100000
H       -0.50910000       2.07700000       0.55540000
H       -0.99090000      -0.27700000      -0.05190000
H        1.04820000      -2.56050000       0.12890000
H        3.38180000      -2.34720000       0.77160000
H        3.40060000      -1.17240000      -0.54390000
H        4.01840000       0.09860000       1.73720000
H        1.74280000       0.89110000       2.64310000
H       -0.72700000      -0.47880000       2.92150000
H       -1.00780000      -1.85230000       1.84200000
H        0.31340000      -1.90320000       3.02380000
