20
Properties=species:S:1:pos:R:3 gdb_16957=T pbc="F F F"
C       -0.20500000       1.55670000      -0.01150000
C        0.04030000       0.04850000       0.00200000
C        0.76650000      -0.51070000      -1.27150000
C        1.89880000      -1.35680000      -0.65760000
C        1.25550000      -1.91700000       0.61900000
C        0.93830000      -0.50070000       1.14770000
C        2.34270000       0.11530000       1.05170000
O        2.89720000      -0.45700000      -0.14840000
H        0.71860000       2.12190000      -0.17210000
H       -0.89340000       1.82630000      -0.81950000
H       -0.65020000       1.89860000       0.92970000
H       -0.93410000      -0.44550000       0.09810000
H        0.09780000      -1.10940000      -1.89830000
H        1.18880000       0.28520000      -1.89120000
H        2.39040000      -2.05740000      -1.33380000
H        0.36350000      -2.52140000       0.43450000
H        1.96120000      -2.47680000       1.23820000
H        0.49260000      -0.42960000       2.14170000
H        2.34160000       1.20780000       0.97260000
H        2.96720000      -0.16060000       1.91270000
