19
Properties=species:S:1:pos:R:3 gdb_101066=T pbc="F F F"
C        0.09600000       1.31150000       0.34930000
N        0.09180000      -0.10720000       0.02580000
C        0.62230000      -0.46750000      -1.28500000
C        2.14320000      -0.31020000      -1.43760000
C        0.14530000      -1.89530000      -1.55630000
C        0.94550000      -2.92950000      -2.24280000
O        0.81390000      -2.93170000      -0.82280000
C       -1.30360000      -2.03920000      -1.60730000
N       -2.44960000      -2.15190000      -1.70100000
H        1.08920000       1.79170000       0.34590000
H       -0.53680000       1.84820000      -0.36620000
H       -0.33920000       1.45100000       1.34270000
H        0.56360000      -0.64580000       0.74460000
H        0.12060000       0.17900000      -2.01720000
H        2.46540000      -0.42070000      -2.47760000
H        2.44780000       0.68590000      -1.10740000
H        2.66900000      -1.05020000      -0.82620000
H        0.42830000      -3.73450000      -2.76020000
H        1.93140000      -2.67600000      -2.62300000
