17
Properties=species:S:1:pos:R:3 gdb_57112=T pbc="F F F"
O        0.10390000       1.43230000       0.25120000
C        0.05190000       0.02830000       0.07380000
C        0.58610000      -0.39820000      -1.22360000
C        1.05010000      -0.74700000      -2.27590000
C        0.78950000      -0.68690000       1.23250000
O        2.06970000      -0.09220000       1.36700000
C        2.25950000       0.21520000       2.74690000
C        0.82980000       0.41840000       3.24060000
O        0.10620000      -0.52500000       2.45600000
H        1.04420000       1.65250000       0.27190000
H       -1.00460000      -0.25010000       0.14980000
H        1.45040000      -1.05120000      -3.21160000
H        0.87210000      -1.76340000       1.02610000
H        2.74980000      -0.62110000       3.26390000
H        2.88980000       1.10460000       2.81990000
H        0.68820000       0.17170000       4.29560000
H        0.47610000       1.43830000       3.04710000
