18
Properties=species:S:1:pos:R:3 gdb_128479=T pbc="F F F"
C        0.29790000       0.91600000       0.49820000
O       -0.41540000       0.27050000      -0.56040000
C        0.34040000      -0.52820000      -1.35030000
C        0.68120000      -1.86070000      -1.23180000
C        0.33150000      -2.80920000      -0.13070000
C        1.44280000      -2.10440000      -2.40860000
N        2.09030000      -3.29770000      -2.73660000
N        1.55450000      -1.03160000      -3.18440000
N        0.88890000      -0.06040000      -2.49880000
H        0.75220000       0.18200000       1.17340000
H        1.08350000       1.57090000       0.10240000
H       -0.43370000       1.51340000       1.04540000
H       -0.19590000      -3.69600000      -0.50530000
H        1.21910000      -3.16790000       0.40450000
H       -0.32970000      -2.32710000       0.59500000
H        1.52790000      -4.11820000      -2.55010000
H        2.39440000      -3.29430000      -3.70270000
H        0.74150000       0.83970000      -2.92010000
