20
Properties=species:S:1:pos:R:3 gdb_82506=T pbc="F F F"
C        0.01260000       1.52340000      -0.06640000
C       -0.01340000       0.01920000       0.05590000
C       -1.31750000      -0.71480000      -0.30750000
C       -1.46810000      -1.90450000       0.64850000
C       -0.52000000      -3.07180000       0.56980000
O        0.29340000      -3.32290000      -0.54730000
C       -0.21180000      -1.94770000       1.52390000
C        0.65620000      -0.76490000       1.13980000
N        1.25910000      -0.66520000      -0.19990000
H        0.98380000       1.91040000       0.25110000
H       -0.14460000       1.83480000      -1.10630000
H       -0.77020000       1.98850000       0.54380000
H       -2.16760000      -0.03940000      -0.16700000
H       -1.32980000      -1.01320000      -1.36410000
H       -2.45520000      -2.09490000       1.05790000
H       -0.87480000      -3.98570000       1.04770000
H       -0.27520000      -3.63510000      -1.26000000
H       -0.26400000      -2.17900000       2.58220000
H        1.22590000      -0.29870000       1.93920000
H        1.13040000      -1.53710000      -0.70380000
