16
Properties=species:S:1:pos:R:3 gdb_97292=T pbc="F F F"
N        0.08100000       1.39220000      -0.05800000
C       -0.06360000       0.05570000      -0.26190000
N       -0.93720000      -0.63220000       0.36610000
C       -1.02260000      -2.05570000       0.18190000
C       -1.08720000      -2.87760000       1.51080000
O       -2.37850000      -3.41280000       1.18320000
C       -2.47960000      -2.59480000       0.00780000
C       -0.08200000      -2.61830000      -0.79600000
N        0.67870000      -3.00690000      -1.57610000
H        0.58760000       1.93850000      -0.73230000
H       -0.63140000       1.86440000       0.47650000
H        0.65260000      -0.36320000      -0.97810000
H       -0.33020000      -3.65810000       1.63790000
H       -1.11030000      -2.21880000       2.38570000
H       -3.21610000      -1.79060000       0.11230000
H       -2.67740000      -3.18170000      -0.89490000
