23
Properties=species:S:1:pos:R:3 gdb_107472=T pbc="F F F"
C       -1.04380000      -1.52290000       0.44790000
O        0.06570000      -0.73250000       0.08580000
C        0.78760000      -1.13930000      -1.02100000
C        0.22850000      -1.79490000      -2.24770000
C        1.34900000      -2.48770000      -1.48860000
C        2.67680000      -1.81470000      -1.84490000
C        2.13630000      -0.44340000      -1.28750000
C        2.12340000       0.74700000      -2.24580000
C        2.83150000      -0.07520000       0.02590000
H       -1.85590000      -1.46020000      -0.28990000
H       -0.76620000      -2.57920000       0.57730000
H       -1.40780000      -1.13530000       1.40210000
H       -0.74560000      -2.25630000      -2.12220000
H        0.39500000      -1.39770000      -3.24750000
H        1.23010000      -3.49260000      -1.10230000
H        3.53300000      -2.18350000      -1.27520000
H        2.93190000      -1.82790000      -2.91080000
H        1.63600000       0.50510000      -3.19490000
H        1.59380000       1.59810000      -1.80350000
H        3.14520000       1.07250000      -2.47210000
H        3.86840000       0.22260000      -0.16580000
H        2.32150000       0.75530000       0.52290000
H        2.84110000      -0.92010000       0.72120000
