18
Properties=species:S:1:pos:R:3 gdb_49551=T pbc="F F F"
O        0.10330000       0.07630000      -0.41640000
C        0.11680000       1.26520000      -0.17770000
N        1.19740000       1.95680000       0.26800000
C        1.56330000       3.38620000       0.12390000
C        2.92020000       2.99370000       0.77660000
C        2.63070000       1.58700000       0.16660000
C        3.03640000       1.61220000      -1.29910000
C        2.61590000       2.65100000      -2.02210000
C        1.75820000       3.71900000      -1.37080000
H       -0.78470000       1.91140000      -0.24420000
H        0.91680000       4.09790000       0.64270000
H        3.81770000       3.50700000       0.43220000
H        2.85490000       2.99530000       1.86550000
H        2.92530000       0.68930000       0.70790000
H        3.64930000       0.81700000      -1.70790000
H        2.85430000       2.75420000      -3.07630000
H        0.78210000       3.78410000      -1.87180000
H        2.22040000       4.70960000      -1.47760000
