19
Properties=species:S:1:pos:R:3 gdb_119547=T pbc="F F F"
C       -0.24380000       1.43750000       0.89820000
O       -0.13970000       0.04910000       1.11360000
C        0.71400000      -0.58750000       0.18680000
C        0.74250000      -2.05900000       0.48610000
C       -0.48240000      -2.82470000       0.97090000
C        0.73270000      -2.84620000       1.82840000
C        1.72210000      -3.88510000       1.27720000
C        1.77120000      -3.02550000      -0.01490000
O        2.52010000      -3.00090000      -0.95250000
H       -0.65260000       1.66530000      -0.09850000
H       -0.92010000       1.83540000       1.65830000
H        0.73230000       1.93840000       0.99170000
H        0.36170000      -0.41910000      -0.84540000
H        1.73340000      -0.17060000       0.24750000
H       -1.27960000      -2.16190000       1.28810000
H       -0.80880000      -3.72640000       0.45900000
H        0.76480000      -2.40830000       2.81650000
H        2.70440000      -3.88460000       1.75830000
H        1.36100000      -4.91480000       1.19820000
