21
Properties=species:S:1:pos:R:3 gdb_113571=T pbc="F F F"
O       -0.06040000       1.35060000      -0.48020000
C        0.00120000       0.05530000       0.10560000
C       -1.38530000      -0.52920000       0.09610000
C       -1.90970000      -1.21780000      -1.13590000
C       -1.60240000      -2.02930000       0.10970000
C       -0.45360000      -3.05380000       0.17580000
C       -1.10270000      -4.36050000       0.71550000
C       -2.44240000      -3.89970000       1.24130000
C       -2.70580000      -2.63920000       0.89920000
H        0.81000000       1.75280000      -0.40280000
H        0.68770000      -0.59980000      -0.45370000
H        0.37700000       0.11110000       1.14050000
H       -2.10340000       0.06040000       0.66080000
H       -2.94750000      -1.06740000      -1.41410000
H       -1.23160000      -1.32010000      -1.97810000
H        0.03390000      -3.20120000      -0.79110000
H        0.31640000      -2.71260000       0.87610000
H       -1.23460000      -5.10970000      -0.07740000
H       -0.48650000      -4.83940000       1.48510000
H       -3.10920000      -4.55040000       1.79560000
H       -3.61660000      -2.09650000       1.12980000
