18
Properties=species:S:1:pos:R:3 gdb_69447=T pbc="F F F"
O       -0.44630000       1.35290000      -0.06840000
C       -0.18230000      -0.00810000       0.06370000
C       -0.16910000      -0.88450000      -1.16540000
C       -1.30130000      -0.98840000      -0.15910000
C       -1.19490000      -2.09540000       0.89170000
C        0.25970000      -1.95890000       1.44720000
C        0.62420000      -0.47110000       1.27030000
C       -2.19640000      -1.90540000       1.94500000
N       -2.98330000      -1.75760000       2.77880000
H        0.34460000       1.78120000      -0.41330000
H       -0.42700000      -0.39250000      -2.09660000
H        0.55240000      -1.68960000      -1.26450000
H       -2.28380000      -0.64440000      -0.45680000
H       -1.35550000      -3.09180000       0.46470000
H        0.33410000      -2.29550000       2.48240000
H        0.92030000      -2.59510000       0.85260000
H        1.70390000      -0.32490000       1.15640000
H        0.29680000       0.11840000       2.13350000
