16
Properties=species:S:1:pos:R:3 gdb_34946=T pbc="F F F"
C       -0.03630000      -1.20340000      -0.06180000
C        0.00440000      -0.00670000       0.04320000
C        0.04510000       1.44060000       0.09190000
C       -0.32880000       2.08980000       1.44940000
N        0.68280000       1.43490000       2.34640000
C        1.65020000       2.32180000       1.65530000
C        0.60840000       3.39380000       1.31340000
O        1.05490000       3.52180000      -0.03910000
C        1.44620000       2.12560000       0.09430000
H       -0.07030000      -2.26210000      -0.13290000
H       -0.52700000       1.87190000      -0.73450000
H       -1.37040000       2.09680000       1.76300000
H        0.56100000       1.79490000       3.29280000
H        2.65000000       2.47950000       2.05480000
H        0.37740000       4.32030000       1.83850000
H        2.21240000       1.79860000      -0.60430000
