19
Properties=species:S:1:pos:R:3 gdb_118595=T pbc="F F F"
C       -0.04510000       1.44300000       0.04140000
O       -0.02210000       0.03580000       0.08000000
C        0.58100000      -0.51030000      -1.05610000
C        0.57530000      -2.02250000      -0.95620000
N        1.15770000      -2.71770000      -2.04330000
C        1.73740000      -2.23660000      -3.19430000
O        1.86440000      -1.07730000      -3.50820000
N        0.07460000      -2.61050000       0.04820000
C        0.08010000      -4.05950000       0.12280000
H        0.96960000       1.86980000      -0.00540000
H       -0.61380000       1.82160000      -0.82300000
H       -0.52960000       1.78210000       0.95980000
H        0.06310000      -0.20800000      -1.98070000
H        1.61920000      -0.16080000      -1.17730000
H        1.14570000      -3.72340000      -1.96120000
H        2.09060000      -3.07260000      -3.82970000
H       -0.39200000      -4.37160000       1.05710000
H       -0.48380000      -4.52840000      -0.69940000
H        1.09830000      -4.48050000       0.11620000
