23
Properties=species:S:1:pos:R:3 gdb_92645=T pbc="F F F"
C       -0.15470000       1.59650000      -0.02050000
C        0.03240000       0.08920000       0.02660000
C        1.03780000      -0.59840000      -0.94280000
C        1.38690000      -1.59250000       0.20190000
C        2.81310000      -2.08690000       0.44130000
C        3.71340000      -0.98130000       1.01320000
C        2.98330000      -0.24920000       2.13810000
O        1.80240000       0.37030000       1.65370000
C        0.81790000      -0.54680000       1.20680000
H        0.79920000       2.10890000       0.12530000
H       -0.56930000       1.90360000      -0.98710000
H       -0.84180000       1.93940000       0.76100000
H       -0.93760000      -0.41630000      -0.04700000
H        0.64640000      -1.01950000      -1.87230000
H        1.87330000       0.06570000      -1.18220000
H        0.70010000      -2.44420000       0.15180000
H        2.78160000      -2.91540000       1.16210000
H        3.23590000      -2.49840000      -0.48320000
H        4.65270000      -1.40550000       1.38580000
H        3.97400000      -0.25060000       0.23840000
H        2.74360000      -0.94950000       2.95760000
H        3.59570000       0.55550000       2.55610000
H        0.24730000      -0.92720000       2.06750000
