13
Properties=species:S:1:pos:R:3 gdb_24940=T pbc="F F F"
O       -0.00100000       0.02720000       0.00400000
C       -0.02220000       1.23080000       0.01020000
C       -1.30870000       2.14070000       0.03290000
C       -0.67180000       3.48060000       0.03050000
C        0.67040000       3.39900000       0.01140000
N        1.09240000       2.06870000      -0.00100000
N        1.25180000       4.64010000       0.00970000
C        0.20900000       5.42660000       0.02780000
O       -1.00220000       4.80450000       0.04190000
H       -1.92200000       1.90480000      -0.84330000
H       -1.89700000       1.89610000       0.92370000
H        2.03740000       1.72390000      -0.01620000
H        0.19440000       6.50400000       0.03340000
