22
Properties=species:S:1:pos:R:3 gdb_5850=T pbc="F F F"
C        0.04590000       1.53890000      -0.10160000
C       -0.00720000       0.01550000       0.08610000
C        0.80700000      -0.39800000       1.31630000
O        2.15890000      -0.02180000       1.08070000
C       -1.45390000      -0.55060000       0.08290000
C       -1.45720000      -2.08850000       0.05350000
C       -2.31010000      -0.04040000       1.25300000
O       -2.00830000      -0.07560000      -1.15310000
H        1.08530000       1.85740000      -0.20160000
H       -0.50920000       1.83850000      -0.99120000
H       -0.37680000       2.06630000       0.76130000
H        0.48790000      -0.44210000      -0.78010000
H        0.41360000       0.10560000       2.21400000
H        0.73690000      -1.48180000       1.48690000
H        2.66510000      -0.21440000       1.87480000
H       -1.09650000      -2.52840000       0.98750000
H       -2.47900000      -2.45560000      -0.10180000
H       -0.83740000      -2.45690000      -0.76910000
H       -2.37680000       1.04970000       1.24370000
H       -3.32780000      -0.44110000       1.17380000
H       -1.91170000      -0.35800000       2.22170000
H       -2.91210000      -0.40280000      -1.21140000
