19
Properties=species:S:1:pos:R:3 gdb_73017=T pbc="F F F"
O       -0.03010000       1.46270000       0.15460000
C        0.00840000       0.08490000       0.08730000
C       -0.86900000      -0.76750000      -0.82960000
O       -1.02770000      -1.77090000       0.21290000
C       -0.30020000      -0.95830000       1.13880000
C        1.11270000      -0.76110000       0.66790000
C        2.05720000      -1.81250000       0.07360000
C        3.04590000      -1.49570000       1.23720000
C        2.21280000      -0.22770000       1.59610000
H        0.76410000       1.81230000      -0.26460000
H       -1.82890000      -0.29050000      -1.05670000
H       -0.42410000      -1.18030000      -1.74280000
H       -0.63710000      -0.91630000       2.16880000
H        1.66260000      -2.82900000       0.01510000
H        2.45350000      -1.53350000      -0.90840000
H        3.00990000      -2.24930000       2.02710000
H        4.08970000      -1.32990000       0.96310000
H        2.66980000       0.69750000       1.22750000
H        1.95200000      -0.07980000       2.64750000
