17
Properties=species:S:1:pos:R:3 gdb_45242=T pbc="F F F"
O       -0.03620000      -0.03040000      -0.29420000
C        0.00270000       1.14040000      -0.05200000
O       -1.12240000       1.90470000       0.13220000
C       -0.67570000       3.21390000       0.55860000
C       -0.04350000       3.03320000       1.96450000
C        1.39870000       2.79280000       1.48190000
C        1.64780000       4.09860000       0.67520000
C        0.60320000       3.48630000      -0.28310000
C        1.17530000       2.08530000       0.07380000
H       -1.51470000       3.89980000       0.46420000
H       -0.11560000       3.92600000       2.59160000
H       -0.50600000       2.19410000       2.48820000
H        2.12260000       2.39720000       2.19170000
H        1.42820000       5.05170000       1.16520000
H        2.63820000       4.13420000       0.21580000
H        0.45970000       3.81070000      -1.31310000
H        2.08630000       1.75410000      -0.41790000
