16
Properties=species:S:1:pos:R:3 gdb_54236=T pbc="F F F"
N        0.17710000       0.89460000       0.81340000
C        0.00500000       0.03520000      -0.22310000
O        0.73660000      -0.03070000      -1.19420000
C       -1.27320000      -0.80950000      -0.12960000
N       -2.35870000      -0.25080000      -0.92850000
C       -1.07160000      -2.34170000      -0.33220000
N       -1.55720000      -2.50950000       1.04860000
C       -1.72400000      -1.18510000       1.30610000
O       -2.04720000      -0.54580000       2.28030000
H        0.96370000       1.52350000       0.79720000
H       -0.44200000       0.87630000       1.61140000
H       -2.70350000       0.59530000      -0.48200000
H       -1.98980000       0.02530000      -1.83610000
H       -1.73010000      -2.77060000      -1.09030000
H       -0.03680000      -2.65460000      -0.48710000
H       -1.65180000      -3.32090000       1.64140000
