20
Properties=species:S:1:pos:R:3 gdb_105835=T pbc="F F F"
C       -0.70030000       1.22680000       0.11840000
C        0.35430000       0.14440000      -0.15310000
C        0.89750000      -0.45570000       1.11420000
C        2.08580000       0.10960000       1.92010000
C        2.04750000       0.52430000       3.37340000
C        2.11110000      -1.30400000       1.44890000
O        1.32770000      -2.14230000       2.34380000
C        0.17910000      -1.43470000       1.99070000
N       -1.02290000      -1.64580000       2.27900000
H       -0.27340000       2.05840000       0.68860000
H       -1.09650000       1.62780000      -0.81940000
H       -1.53170000       0.81280000       0.69530000
H       -0.08760000      -0.65090000      -0.76560000
H        1.18380000       0.56380000      -0.73530000
H        2.68130000       0.76030000       1.27950000
H        1.50910000      -0.20680000       3.97980000
H        3.06340000       0.60980000       3.77350000
H        1.55650000       1.49530000       3.48970000
H        2.84480000      -1.80420000       0.83040000
H       -1.12240000      -2.46430000       2.88220000
