19
Properties=species:S:1:pos:R:3 gdb_39039=T pbc="F F F"
C        0.04720000       1.58230000      -0.10650000
C        1.56520000       1.30790000       0.10860000
C        1.13590000       0.02000000       0.93460000
C       -0.05350000       0.06680000      -0.02960000
O       -1.16630000      -0.72910000      -0.39290000
C        0.02850000      -0.76430000      -1.21530000
C        0.29330000      -0.05720000      -2.52360000
C        1.69450000       0.54020000      -2.35750000
C        2.23160000       1.05020000      -1.23580000
H       -0.40780000       2.05700000       0.76840000
H       -0.25550000       2.10620000      -1.01300000
H        2.12870000       2.04830000       0.67860000
H        1.78230000      -0.85860000       0.90810000
H        0.90790000       0.30090000       1.96730000
H        0.56490000      -1.70800000      -1.11210000
H        0.27610000      -0.73930000      -3.37960000
H       -0.45810000       0.71480000      -2.72200000
H        2.32920000       0.50080000      -3.23970000
H        3.26460000       1.38510000      -1.30110000
