17
Properties=species:S:1:pos:R:3 gdb_55306=T pbc="F F F"
N       -0.41050000       1.40110000      -0.13590000
C        0.04400000       0.11020000      -0.06790000
O        1.20900000      -0.19460000      -0.19300000
C       -1.08190000      -0.88970000       0.17830000
N       -0.69610000      -2.26790000       0.52680000
C       -1.79870000      -2.37860000       1.51780000
C       -1.86980000      -0.85090000       1.49830000
C       -1.83790000       0.10990000       2.59560000
O       -2.99370000      -0.04230000       1.73880000
H        0.24520000       2.13300000      -0.35460000
H       -1.39160000       1.62120000      -0.09160000
H       -1.79770000      -0.81560000      -0.65880000
H       -0.71830000      -2.93180000      -0.23740000
H       -2.72780000      -2.82660000       1.13700000
H       -1.51850000      -2.86750000       2.45620000
H       -1.97380000      -0.24140000       3.61680000
H       -1.29890000       1.04750000       2.48380000
