16
Properties=species:S:1:pos:R:3 gdb_7214=T pbc="F F F"
C        0.25060000       1.45100000       0.15770000
C        0.14610000      -0.00040000       0.09690000
C        0.04120000      -1.20050000       0.06530000
C       -0.08090000      -2.65470000       0.00320000
N       -1.47990000      -3.08740000       0.04060000
C        0.69220000      -3.28340000      -1.19970000
N        1.82360000      -2.63840000      -1.57610000
O        0.31070000      -4.32900000      -1.68890000
H        1.12000000       1.76240000       0.74670000
H        0.34860000       1.89010000      -0.84120000
H       -0.63860000       1.88650000       0.62600000
H        0.41780000      -3.07840000       0.88980000
H       -2.00020000      -2.54510000      -0.64480000
H       -1.48640000      -4.04470000      -0.31120000
H        2.00100000      -1.70100000      -1.25570000
H        2.34210000      -2.99930000      -2.36040000
