21
Properties=species:S:1:pos:R:3 gdb_17824=T pbc="F F F"
C        2.97380000      -0.75300000       0.41370000
N        1.63140000      -1.31000000       0.48420000
C        1.35950000      -2.29480000       1.52310000
C        0.73740000      -0.93800000       1.58520000
C        1.09310000       0.04290000       2.67040000
C        0.80260000       1.55730000       2.44300000
C        0.32740000       1.65140000       3.91710000
C        0.16360000       0.10780000       3.91970000
H        3.49680000      -0.68080000       1.38020000
H        3.57840000      -1.38650000      -0.24370000
H        2.93040000       0.24770000      -0.02860000
H        0.78250000      -3.16640000       1.22340000
H        2.14990000      -2.50310000       2.24520000
H       -0.30010000      -0.84940000       1.25770000
H        2.12850000      -0.09340000       2.99540000
H        1.63260000       2.19340000       2.12550000
H       -0.02740000       1.69530000       1.74200000
H        1.13320000       1.97360000       4.58320000
H       -0.55730000       2.25620000       4.12880000
H       -0.85920000      -0.18890000       3.66430000
H        0.47120000      -0.44500000       4.81070000
