20
Properties=species:S:1:pos:R:3 gdb_68162=T pbc="F F F"
C       -0.04070000       1.56510000      -0.00330000
C        0.04270000       0.05130000      -0.01430000
C        1.14720000      -0.64920000      -0.85350000
C        1.14580000      -1.77140000       0.22940000
C        0.64210000      -0.68420000       1.23150000
C       -0.00600000      -2.70400000      -0.05880000
O        0.04640000      -3.90670000       0.03050000
C       -1.28010000      -1.98210000      -0.52960000
N       -1.25630000      -0.51360000      -0.40120000
H        0.92230000       2.00750000       0.26810000
H       -0.33790000       1.94060000      -0.98690000
H       -0.78330000       1.91180000       0.72610000
H        0.90920000      -0.91490000      -1.88670000
H        2.08240000      -0.08520000      -0.82800000
H        2.05780000      -2.32690000       0.44700000
H        1.48500000      -0.14380000       1.67170000
H       -0.04750000      -0.98890000       2.02470000
H       -1.41600000      -2.27060000      -1.58220000
H       -2.12990000      -2.41370000       0.00720000
H       -1.94750000      -0.22360000       0.28190000
