16
Properties=species:S:1:pos:R:3 gdb_106658=T pbc="F F F"
N       -0.11390000       1.46070000       0.09620000
C       -0.07440000       0.05410000      -0.01600000
C       -0.30380000      -0.84690000       1.21180000
C       -1.18130000      -0.99340000       0.02610000
C       -2.66620000      -0.92530000      -0.09850000
O       -3.30730000      -2.11470000       0.32870000
O       -0.46790000      -1.81610000      -0.95340000
C        0.49800000      -0.82260000      -1.11230000
O        1.35870000      -0.77520000      -1.92900000
H        0.71820000       1.82230000       0.55040000
H       -0.19300000       1.90750000      -0.81100000
H        0.40330000      -1.62980000       1.46440000
H       -0.72550000      -0.29870000       2.04910000
H       -3.03620000      -0.12080000       0.54420000
H       -2.92780000      -0.67560000      -1.13750000
H       -3.01250000      -2.82580000      -0.25060000
