15
Properties=species:S:1:pos:R:3 gdb_23543=T pbc="F F F"
O       -0.41550000       1.41010000      -0.10780000
N       -0.08760000       0.04480000      -0.09260000
C       -1.12630000      -0.65720000       0.07590000
C       -1.33770000      -2.12140000       0.05650000
C       -2.25970000      -2.51510000       1.15130000
N       -2.86140000      -1.91660000      -0.05190000
C       -2.62280000      -0.40310000       0.05220000
C       -3.32240000       0.27770000       1.21140000
O       -2.92250000       0.25110000       2.34830000
H        0.44300000       1.82810000      -0.23620000
H       -0.80370000      -2.83760000      -0.55650000
H       -2.48290000      -3.57470000       1.23100000
H       -2.26120000      -1.96460000       2.08610000
H       -2.93170000       0.05620000      -0.89170000
H       -4.27260000       0.79070000       0.95020000
