15
Properties=species:S:1:pos:R:3 gdb_131882=T pbc="F F F"
C       -0.03080000       1.56650000       0.09230000
C       -0.01300000       0.07290000       0.03010000
C        0.02910000      -0.73120000      -1.10380000
N        0.03260000      -2.05110000      -0.73540000
C       -0.00670000      -2.12330000       0.61750000
C       -0.03530000      -0.83110000       1.11850000
N        0.06560000      -0.40510000      -2.47820000
O        0.09860000      -1.34730000      -3.27970000
O        0.06240000       0.78450000      -2.79090000
H        0.85420000       1.99480000      -0.38730000
H       -0.89510000       1.97610000      -0.43860000
H       -0.06490000       1.90410000       1.13110000
H        0.05880000      -2.79660000      -1.41220000
H       -0.01120000      -3.07420000       1.12590000
H       -0.06880000      -0.56030000       2.16290000
