17
Properties=species:S:1:pos:R:3 gdb_49718=T pbc="F F F"
N       -0.04590000       1.31750000      -0.34760000
C        0.00120000       0.04630000      -0.24820000
N       -1.12940000      -0.69780000      -0.04060000
C       -1.34730000      -2.13490000       0.14170000
C       -1.24240000      -2.66690000       1.59340000
N       -2.59570000      -2.13190000       1.89920000
C       -2.83830000      -1.79450000       0.47000000
C       -2.48480000      -0.33460000       0.17800000
N       -3.12700000       0.74500000       0.15420000
H        0.88460000       1.69710000      -0.50640000
H        0.90440000      -0.57280000      -0.32350000
H       -1.00550000      -2.76280000      -0.68140000
H       -1.17430000      -3.76190000       1.61090000
H       -0.44210000      -2.25180000       2.21520000
H       -3.23940000      -2.81750000       2.27260000
H       -3.70570000      -2.23350000      -0.02130000
H       -2.49860000       1.52540000      -0.04860000
