18
Properties=species:S:1:pos:R:3 gdb_58371=T pbc="F F F"
C        0.06370000       1.55220000      -0.00390000
C        0.00300000       0.02880000       0.07910000
O        0.70650000      -0.47710000       1.19930000
C       -1.45490000      -0.51950000       0.05150000
C       -1.46050000      -2.06950000      -0.03650000
C       -2.79670000      -2.63860000      -0.12710000
C       -3.90920000      -3.08430000      -0.20870000
C       -2.16420000      -0.05710000       1.24770000
N       -2.65520000       0.33070000       2.22000000
H        1.10640000       1.87860000       0.01560000
H       -0.39810000       1.91790000      -0.92660000
H       -0.45970000       2.01230000       0.84140000
H        0.51180000      -0.40240000      -0.79100000
H        0.34910000      -0.05560000       1.99110000
H       -1.97030000      -0.11470000      -0.82690000
H       -0.87430000      -2.35170000      -0.91950000
H       -0.92460000      -2.46520000       0.83190000
H       -4.88960000      -3.48800000      -0.26960000
