12
Properties=species:S:1:pos:R:3 gdb_130507=T pbc="F F F"
O       -0.08980000       1.20940000       0.00950000
N        0.98260000       2.08030000       0.00390000
C        2.18430000       1.57990000      -0.01030000
C        2.41630000       0.18900000      -0.02000000
C        3.45450000      -0.69940000      -0.03490000
C        2.82150000      -2.00090000      -0.03540000
N        1.50160000      -1.97930000      -0.02310000
C        1.20500000      -0.63490000      -0.01290000
N        0.00160000      -0.15510000       0.00120000
H        2.97410000       2.32570000      -0.01390000
H        4.51540000      -0.49840000      -0.04410000
H        3.35100000      -2.94760000      -0.04570000
