18
Properties=species:S:1:pos:R:3 gdb_115171=T pbc="F F F"
C        0.19570000       1.09880000       0.44230000
O       -0.18300000       0.13960000      -0.53240000
C       -1.41970000      -0.48680000      -0.28840000
C       -1.86100000      -1.15320000      -1.61430000
N       -1.25220000      -2.47830000      -1.54680000
C       -0.79370000      -2.80110000      -0.31250000
O       -0.10050000      -3.74050000       0.02390000
C       -1.29510000      -1.71450000       0.64500000
O       -0.44330000      -1.58490000       1.74520000
H        1.13170000       1.54250000       0.09440000
H       -0.56110000       1.89440000       0.52610000
H        0.34730000       0.64170000       1.42370000
H       -2.16180000       0.24220000       0.06430000
H       -2.95410000      -1.21150000      -1.69020000
H       -1.47700000      -0.57740000      -2.45930000
H       -1.02100000      -3.02810000      -2.35840000
H       -2.31300000      -2.00050000       0.96670000
H        0.11080000      -2.38190000       1.72760000
