23
Properties=species:S:1:pos:R:3 gdb_77518=T pbc="F F F"
C       -0.02460000       1.54630000       0.00820000
C       -0.02480000       0.03570000      -0.01430000
C        0.36240000      -0.79870000      -1.27340000
C       -0.41490000      -1.94470000      -0.55660000
C       -0.95120000      -3.15790000      -1.27980000
C        0.48260000      -2.18120000       0.67950000
C        0.77400000      -0.70130000       1.08470000
C       -1.34520000      -0.79830000      -0.04670000
O       -2.15510000      -0.95010000       1.09030000
H        0.99370000       1.94810000      -0.05050000
H       -0.59530000       1.95870000      -0.83070000
H       -0.47590000       1.92170000       0.93390000
H       -0.13760000      -0.45150000      -2.18190000
H        1.42740000      -0.95510000      -1.46810000
H       -0.14040000      -3.80960000      -1.62590000
H       -1.59440000      -3.75150000      -0.61980000
H       -1.54600000      -2.87180000      -2.15380000
H       -0.03150000      -2.75180000       1.46190000
H        1.38920000      -2.73740000       0.42320000
H        1.83900000      -0.45350000       1.04860000
H        0.42170000      -0.45020000       2.09210000
H       -2.01280000      -0.44960000      -0.83980000
H       -1.61060000      -1.25780000       1.82170000
