16
Properties=species:S:1:pos:R:3 gdb_14162=T pbc="F F F"
C       -0.10730000       1.50950000      -0.04420000
C       -0.04120000      -0.01030000      -0.02730000
O       -1.28810000      -0.58070000      -0.31230000
C        1.26890000      -0.62750000      -0.68900000
O        1.96500000      -0.21060000       0.52800000
C        0.73290000      -0.64000000       1.18900000
C        0.69820000      -2.13530000       0.84510000
C        1.06680000      -2.12450000      -0.43780000
H        0.85900000       1.94590000       0.20730000
H       -0.39830000       1.86760000      -1.04040000
H       -0.85750000       1.86270000       0.67170000
H       -1.79010000       0.03980000      -0.84890000
H        1.71800000      -0.26870000      -1.61510000
H        0.62340000      -0.30050000       2.21880000
H        0.40880000      -2.94770000       1.49420000
H        1.16630000      -2.92730000      -1.15250000
