21
Properties=species:S:1:pos:R:3 gdb_118527=T pbc="F F F"
C        0.46190000      -1.23090000       1.67910000
C       -0.00440000      -0.24240000       0.59880000
N       -1.30060000      -0.51160000      -0.03950000
C       -1.45640000      -1.82020000      -0.67900000
C       -0.45940000      -2.10860000      -1.80520000
O        0.79700000      -2.60930000      -1.36430000
C       -2.43690000      -0.22070000       0.82560000
C       -2.49930000       1.19790000       1.20250000
N       -2.55600000       2.30870000       1.51430000
H        1.39410000      -0.87200000       2.12680000
H       -0.26930000      -1.32920000       2.48790000
H        0.64900000      -2.22130000       1.25690000
H       -0.06250000       0.76640000       1.02030000
H        0.75070000      -0.17810000      -0.19270000
H       -1.41570000      -2.66170000       0.03560000
H       -2.45890000      -1.83430000      -1.12510000
H       -0.88850000      -2.89840000      -2.43160000
H       -0.34510000      -1.21430000      -2.43240000
H        1.38690000      -1.86850000      -1.20640000
H       -3.35880000      -0.45890000       0.28320000
H       -2.46490000      -0.81690000       1.75670000
