17
Properties=species:S:1:pos:R:3 gdb_112531=T pbc="F F F"
N        0.37600000       1.34490000       0.42740000
C        0.13690000      -0.04330000       0.16400000
C       -1.32650000      -0.55330000       0.18290000
C       -2.45440000       0.45910000       0.05870000
O       -3.65630000      -0.20170000      -0.28280000
O       -1.13510000      -1.24840000      -1.08980000
C        0.16170000      -0.66620000      -1.29160000
C        0.18760000       0.32890000      -2.36520000
N        0.21480000       1.16460000      -3.16410000
H        1.36540000       1.54180000       0.52260000
H        0.01420000       1.94640000      -0.30550000
H        0.77190000      -0.63860000       0.82220000
H       -1.56900000      -1.27600000       0.96910000
H       -2.61580000       0.95840000       1.01870000
H       -2.19830000       1.23080000      -0.68380000
H       -3.47640000      -0.69040000      -1.09510000
H        0.92580000      -1.42760000      -1.48200000
