18
Properties=species:S:1:pos:R:3 gdb_90599=T pbc="F F F"
C       -0.06830000       1.58150000      -0.08970000
C        0.00420000       0.06390000       0.02130000
C        1.05360000      -0.65570000      -0.89360000
N        1.76290000      -1.16850000       0.32150000
C        0.74370000      -0.57060000       1.24710000
C        1.86010000       0.17870000       2.00780000
O        2.01610000      -0.27240000       3.32960000
C        2.79840000      -0.39050000       0.89070000
O        3.92440000      -0.18850000       0.53540000
H        0.92260000       2.04550000      -0.04350000
H       -0.52020000       1.87320000      -1.04350000
H       -0.67750000       2.00840000       0.71400000
H       -0.99810000      -0.35790000      -0.09150000
H        0.65320000      -1.46490000      -1.50860000
H        1.68190000      -0.01010000      -1.51440000
H        0.17180000      -1.26570000       1.86410000
H        1.81030000       1.27570000       1.94840000
H        2.87960000       0.01860000       3.64260000
