18
Properties=species:S:1:pos:R:3 gdb_48722=T pbc="F F F"
O       -0.09830000       0.03990000       0.17230000
C        0.05590000       1.19440000      -0.14090000
C        1.32290000       1.95380000       0.03480000
C        1.24040000       3.43380000       0.25440000
N        1.61480000       2.94060000      -1.05810000
C        3.03770000       2.80730000      -1.37300000
C        4.12530000       3.15750000      -0.38630000
C        3.67500000       1.72450000      -0.52970000
C        2.59350000       1.19870000       0.41730000
H       -0.75910000       1.79170000      -0.60650000
H        0.26660000       3.91740000       0.29460000
H        1.98310000       3.87890000       0.90870000
H        3.24160000       2.90690000      -2.43240000
H        5.08780000       3.41950000      -0.81330000
H        3.89630000       3.70300000       0.52200000
H        4.36500000       1.00820000      -0.96100000
H        2.85240000       1.32690000       1.47320000
H        2.41900000       0.13170000       0.25720000
