14
Properties=species:S:1:pos:R:3 gdb_24527=T pbc="F F F"
N       -0.02580000       1.33780000       0.00980000
C        1.12440000       2.06390000       0.00280000
C        2.34900000       1.43460000      -0.01260000
C        2.44600000       0.02640000      -0.02150000
C        1.27850000      -0.70670000      -0.01450000
N        1.00410000      -2.04570000      -0.01950000
C       -0.32840000      -2.06600000      -0.00670000
N       -1.00510000      -0.86970000       0.00660000
C        0.00700000      -0.01600000       0.00170000
H       -0.92590000       1.79970000       0.02110000
H        1.00810000       3.13880000       0.01010000
H        3.24210000       2.04620000      -0.01770000
H        3.41530000      -0.46020000      -0.03370000
H       -0.88040000      -2.99860000      -0.00680000
