19
Properties=species:S:1:pos:R:3 gdb_53412=T pbc="F F F"
C        0.30110000       1.62280000      -0.38380000
C        0.16540000       0.18770000      -0.17800000
C        0.05140000      -1.00030000      -0.01500000
C       -0.08240000      -2.43450000       0.20150000
C        0.29120000      -2.86820000       1.65310000
O       -0.45590000      -4.04480000       1.93260000
C       -1.63000000      -4.00510000       1.16140000
C       -2.47410000      -2.75610000       1.17210000
C       -1.49150000      -3.01380000       0.04450000
H        0.97100000       1.84360000      -1.22230000
H       -0.66690000       2.08700000      -0.60300000
H        0.71030000       2.11650000       0.50470000
H        0.56820000      -2.96830000      -0.50330000
H        1.35240000      -3.10140000       1.76780000
H        0.03750000      -2.06400000       2.35550000
H       -2.07740000      -4.98620000       1.05690000
H       -3.52730000      -2.87170000       0.93970000
H       -2.26140000      -1.97190000       1.89040000
H       -1.85630000      -3.20270000      -0.95750000
