18
Properties=species:S:1:pos:R:3 gdb_126039=T pbc="F F F"
C       -0.22590000       1.50740000      -0.10650000
C        0.00150000       0.02170000       0.00640000
N        1.38170000      -0.46980000      -0.11400000
C        0.68180000      -0.62840000       1.17510000
C        1.26270000       0.12160000       2.30690000
C        0.91060000       0.23860000       3.63990000
C        1.88340000       1.09940000       4.19070000
N        2.77570000       1.49050000       3.28340000
N        2.37240000       0.88570000       2.15120000
H        0.54850000       2.06760000       0.42180000
H       -0.21770000       1.81860000      -1.15630000
H       -1.19690000       1.77950000       0.32050000
H       -0.76910000      -0.59120000      -0.46040000
H        1.42230000      -1.35170000      -0.61550000
H        0.31590000      -1.61900000       1.43690000
H        0.07480000      -0.22890000       4.13500000
H        1.97010000       1.44740000       5.20980000
H        2.89490000       0.97670000       1.29470000
