13
Properties=species:S:1:pos:R:3 gdb_4323=T pbc="F F F"
O        0.01180000       1.32740000       0.00810000
C       -0.01720000      -0.01690000       0.00080000
C       -1.19750000      -0.69040000       0.00360000
C       -1.21130000      -2.13150000      -0.00430000
N       -2.27580000      -2.84460000      -0.00240000
N        0.10860000      -2.66790000      -0.01460000
C        1.22430000      -1.90510000      -0.01650000
N        1.22840000      -0.61250000      -0.00930000
H        0.94550000       1.57780000       0.00440000
H       -2.14460000      -0.17050000       0.01170000
H       -2.06800000      -3.84370000      -0.00910000
H        0.20310000      -3.67300000      -0.02070000
H        2.16850000      -2.44420000      -0.02470000
