18
Properties=species:S:1:pos:R:3 gdb_15678=T pbc="F F F"
C        0.17270000       1.31780000       0.13840000
O        0.16250000      -0.09450000       0.04430000
C        0.53910000      -0.57630000      -1.22230000
O        1.89880000      -0.32350000      -1.52150000
C        2.64130000      -1.54130000      -1.47380000
C        1.60510000      -2.61760000      -1.33850000
C        0.39460000      -2.08140000      -1.21590000
C       -0.93340000      -2.73370000      -1.02340000
H        1.18180000       1.72170000      -0.00570000
H       -0.49790000       1.77430000      -0.60620000
H       -0.18140000       1.57580000       1.13900000
H       -0.06770000      -0.06230000      -1.98890000
H        3.23290000      -1.62610000      -2.39600000
H        3.34890000      -1.53390000      -0.63000000
H        1.84700000      -3.67340000      -1.32660000
H       -0.84610000      -3.82240000      -0.98440000
H       -1.39540000      -2.38460000      -0.09360000
H       -1.62360000      -2.47520000      -1.83640000
