14
Properties=species:S:1:pos:R:3 gdb_28193=T pbc="F F F"
O        0.17120000       1.30870000       0.20210000
C        0.14130000      -0.03380000       0.00260000
C        0.08590000      -0.80930000      -1.12670000
C       -0.00500000      -2.16410000      -0.64330000
C       -0.01320000      -2.10850000       0.73430000
N        0.06420000      -3.39950000       1.19110000
C        0.04590000      -4.17940000       0.04190000
N        0.02590000      -3.47690000      -1.06780000
N        0.14610000      -0.80810000       1.16360000
H        0.05670000       1.74150000      -0.64940000
H        0.12250000      -0.45570000      -2.14490000
H       -0.00930000      -3.73760000       2.13460000
H        0.02520000      -5.25690000       0.10810000
H       -0.11990000      -0.42130000       2.05400000
