18
Properties=species:S:1:pos:R:3 gdb_23393=T pbc="F F F"
O       -0.30780000       1.34790000      -0.17430000
N       -0.09050000      -0.04470000      -0.17730000
C       -1.17980000      -0.68210000      -0.11070000
C       -1.46540000      -2.16380000       0.05660000
C       -2.62710000      -1.69470000       0.99620000
C       -2.66270000      -0.38840000       0.14500000
O       -3.45120000      -0.59950000      -1.01910000
C       -2.83550000      -1.50030000      -1.94140000
C       -2.11010000      -2.67610000      -1.25340000
H        0.59150000       1.69120000      -0.21020000
H       -0.68520000      -2.81880000       0.44510000
H       -3.54560000      -2.28630000       0.98730000
H       -2.28900000      -1.51370000       2.01900000
H       -2.96280000       0.55840000       0.59140000
H       -3.62980000      -1.84540000      -2.60800000
H       -2.10450000      -0.94360000      -2.54560000
H       -1.35020000      -3.06740000      -1.93800000
H       -2.79910000      -3.49500000      -1.01860000
