18
Properties=species:S:1:pos:R:3 gdb_106426=T pbc="F F F"
O        0.58470000       0.10620000       0.72280000
C       -0.23560000       0.24790000      -0.43210000
C       -1.56460000      -0.41410000      -0.20290000
C       -2.75460000      -0.00010000       0.71690000
C       -3.19790000      -1.19560000      -0.15960000
O       -2.52940000      -0.54770000      -1.32220000
C       -1.85930000      -1.88020000       0.15190000
C       -1.20950000      -3.15020000      -0.16110000
N       -1.45250000      -2.71840000       1.25330000
H        0.21270000       0.66020000       1.41690000
H       -0.36870000       1.29980000      -0.72210000
H        0.28680000      -0.25950000      -1.24930000
H       -2.66290000      -0.16730000       1.79320000
H       -3.21930000       0.95270000       0.45800000
H       -4.19140000      -1.61190000      -0.31690000
H       -1.79480000      -4.00950000      -0.47530000
H       -0.18930000      -3.13190000      -0.53570000
H       -0.58530000      -2.35800000       1.64730000
