16
Properties=species:S:1:pos:R:3 gdb_11940=T pbc="F F F"
C        0.03340000       1.43950000       0.20380000
C        0.01740000      -0.04740000       0.08760000
C       -0.87350000      -0.98890000       0.80140000
C        0.62730000      -1.16590000       0.99620000
C        1.23560000      -1.66770000      -0.30510000
O        0.56510000      -0.64230000      -1.08570000
C        1.28850000      -0.96920000       2.28500000
O        0.76530000      -0.46290000       3.25460000
H        1.01010000       1.84310000      -0.07660000
H       -0.72260000       1.87860000      -0.45710000
H       -0.19470000       1.73590000       1.23100000
H       -1.36440000      -0.59810000       1.68650000
H       -1.41830000      -1.74540000       0.24320000
H        2.32290000      -1.53680000      -0.35770000
H        0.96590000      -2.67800000      -0.63310000
H        2.35370000      -1.29380000       2.31280000
