25
Properties=species:S:1:pos:R:3 gdb_57534=T pbc="F F F"
C        0.00840000       1.57930000      -0.04750000
C        0.00050000       0.04400000       0.00900000
C        0.54980000      -0.43500000       1.35580000
O       -1.35460000      -0.42720000      -0.02340000
C        0.80020000      -0.52650000      -1.18510000
C        0.78650000      -2.04210000      -1.34640000
C       -0.49750000      -2.76930000      -1.83900000
C        0.40330000      -3.71320000      -2.67860000
C        1.53790000      -2.65990000      -2.56150000
H        1.02440000       1.97900000       0.03570000
H       -0.41140000       1.93580000      -0.99590000
H       -0.59440000       1.98950000       0.76780000
H       -0.02470000       0.01170000       2.17220000
H        0.47010000      -1.52050000       1.44730000
H        1.59930000      -0.14920000       1.47290000
H       -1.74860000      -0.13300000      -0.85160000
H        0.40810000      -0.07240000      -2.10820000
H        1.84010000      -0.18080000      -1.10240000
H        1.14360000      -2.52310000      -0.42920000
H       -1.15780000      -3.20560000      -1.08780000
H       -1.09560000      -2.11570000      -2.48390000
H        0.64670000      -4.63070000      -2.13430000
H        0.06470000      -3.98690000      -3.68080000
H        1.53620000      -1.97420000      -3.41620000
H        2.56050000      -3.01420000      -2.40570000
