18
Properties=species:S:1:pos:R:3 gdb_51812=T pbc="F F F"
N       -0.07910000       1.26390000      -0.11630000
C       -0.04900000       0.00680000      -0.03490000
O       -1.20280000      -0.69730000      -0.12320000
C       -1.07880000      -2.09490000      -0.07090000
C       -2.46830000      -2.69550000       0.09160000
C       -2.41550000      -4.17330000      -0.19590000
C       -1.37950000      -4.72700000      -0.82060000
C       -0.22110000      -3.90700000      -1.31530000
O       -0.47880000      -2.51100000      -1.27810000
H        0.86180000       1.63930000      -0.01650000
H        0.83650000      -0.62340000       0.11110000
H       -0.43110000      -2.38650000       0.77700000
H       -2.83280000      -2.50590000       1.10750000
H       -3.15290000      -2.17820000      -0.59180000
H       -3.25220000      -4.78120000       0.13520000
H       -1.33030000      -5.79730000      -0.99980000
H        0.68970000      -4.14650000      -0.73610000
H        0.00110000      -4.14020000      -2.36250000
