24
Properties=species:S:1:pos:R:3 gdb_60422=T pbc="F F F"
C        0.10610000       1.49270000      -0.21590000
C       -0.02610000      -0.01520000       0.04340000
C        0.46910000      -0.36650000       1.45290000
C       -1.46570000      -0.51930000      -0.16210000
C       -1.97820000      -0.39060000      -1.60230000
N       -3.30260000      -0.96250000      -1.77750000
C       -4.40200000      -0.20940000      -2.08100000
C       -5.71040000      -0.98250000      -2.16620000
O       -4.35230000       0.99300000      -2.27030000
H        1.13550000       1.82720000      -0.05050000
H       -0.16740000       1.76290000      -1.23980000
H       -0.54100000       2.06200000       0.46190000
H        0.61710000      -0.54030000      -0.67870000
H       -0.13970000       0.13210000       2.21660000
H        0.41870000      -1.44460000       1.63890000
H        1.50680000      -0.04870000       1.59820000
H       -1.51620000      -1.57580000       0.13700000
H       -2.14690000       0.02330000       0.50680000
H       -2.06980000       0.65530000      -1.90000000
H       -1.27390000      -0.87530000      -2.29250000
H       -3.42450000      -1.94670000      -1.60500000
H       -6.38190000      -0.62480000      -1.38040000
H       -6.18510000      -0.76160000      -3.12520000
H       -5.59350000      -2.06490000      -2.06540000
