19
Properties=species:S:1:pos:R:3 gdb_32425=T pbc="F F F"
C       -0.05820000       1.61500000      -0.04480000
C       -0.01570000       0.07800000       0.03650000
C       -1.37630000      -0.55120000       0.00830000
C       -2.04270000      -1.18160000       1.01200000
O       -3.27350000      -1.58860000       0.61000000
C       -3.42060000      -1.22440000      -0.70390000
C       -4.69330000      -1.55570000      -1.38980000
C       -2.28740000      -0.58680000      -1.10740000
O       -2.09710000      -0.05040000      -2.35180000
H        0.95170000       2.03670000      -0.05880000
H       -0.58000000       1.94690000      -0.94800000
H       -0.59350000       2.03120000       0.81360000
H        0.59420000      -0.30950000      -0.79340000
H        0.50520000      -0.22880000       0.94990000
H       -1.77900000      -1.41140000       2.03190000
H       -5.54990000      -1.03430000      -0.94540000
H       -4.62030000      -1.25700000      -2.43820000
H       -4.90690000      -2.63020000      -1.35120000
H       -1.15180000       0.01870000      -2.51590000
