19
Properties=species:S:1:pos:R:3 gdb_67885=T pbc="F F F"
O        0.02170000       1.41970000       0.08400000
C        0.03450000       0.01320000      -0.00330000
C        1.02860000      -0.60610000       0.94050000
C        1.12890000      -1.92950000       1.02550000
C        0.22360000      -2.76700000       0.16670000
C       -0.68480000      -1.88960000      -0.68990000
C       -1.38130000      -0.63530000      -0.05740000
C       -1.52840000      -0.08140000      -1.50280000
C       -0.08440000      -0.64800000      -1.42800000
H        0.91720000       1.73480000      -0.07700000
H        1.62840000       0.06650000       1.54730000
H        1.82950000      -2.41660000       1.69750000
H        0.81410000      -3.43410000      -0.47820000
H       -0.38400000      -3.43540000       0.79410000
H       -1.35400000      -2.48810000      -1.31450000
H       -2.11960000      -0.62630000       0.74640000
H       -2.22080000      -0.62140000      -2.15410000
H       -1.62590000       0.99790000      -1.60160000
H        0.67950000      -0.65480000      -2.20900000
