18
Properties=species:S:1:pos:R:3 gdb_43855=T pbc="F F F"
O       -0.05590000      -0.00740000      -0.20780000
C       -0.02350000       1.19950000      -0.03890000
N       -1.15970000       1.94230000       0.19050000
C       -1.18350000       3.37960000       0.08880000
C       -1.74880000       4.01600000      -1.16560000
C       -2.51610000       4.06110000       0.14110000
C        0.02680000       4.00380000       0.75740000
C        1.28040000       3.25370000       0.38800000
C        1.24290000       1.97640000       0.00310000
H       -2.02380000       1.42940000       0.09010000
H       -1.29860000       4.93300000      -1.53110000
H       -2.11440000       3.35260000      -1.94150000
H       -3.40140000       3.43940000       0.23270000
H       -2.58650000       5.00500000       0.67130000
H        0.10750000       5.05660000       0.46850000
H       -0.09060000       3.99100000       1.85200000
H        2.22940000       3.77610000       0.47720000
H        2.13360000       1.40950000      -0.24110000
