16
Properties=species:S:1:pos:R:3 gdb_4010=T pbc="F F F"
C       -0.03320000       1.51690000       0.01360000
N       -0.23660000       0.12310000       0.39960000
H       -1.05560000       0.05040000       0.99600000
H       -0.39680000      -1.84440000      -0.41580000
C        0.90750000      -0.47780000       1.08220000
C        0.76440000      -1.98250000       1.16000000
C        1.43640000      -2.74780000       2.20600000
O        1.44700000      -3.95170000       2.33350000
N        0.02540000      -2.55090000       0.21800000
O       -0.24030000      -3.74920000       0.01790000
H        0.76860000       1.57520000      -0.72960000
H       -0.94700000       1.90100000      -0.44690000
H        0.23610000       2.17740000       0.85390000
H        1.80520000      -0.20690000       0.50750000
H        1.07490000      -0.08250000       2.09920000
H        1.97040000      -2.08760000       2.92960000
