19
Properties=species:S:1:pos:R:3 gdb_52965=T pbc="F F F"
C        0.01730000       1.44540000       0.09280000
C       -0.01150000      -0.00690000       0.02120000
C       -0.03530000      -1.21100000      -0.03220000
C       -0.04190000      -2.62960000      -0.09480000
C       -0.38540000      -3.46880000      -1.29520000
C       -1.15510000      -3.67270000      -0.01180000
C       -0.27090000      -4.34190000       1.03880000
C        0.16020000      -5.78630000       0.89490000
O        0.80450000      -3.38550000       0.79060000
H        0.66470000       1.78090000       0.91050000
H        0.39680000       1.88850000      -0.83470000
H       -0.98250000       1.85550000       0.27510000
H       -0.94050000      -2.95680000      -2.07400000
H        0.33990000      -4.19820000      -1.64390000
H       -2.22400000      -3.52590000       0.06120000
H       -0.67090000      -4.16240000       2.04560000
H        0.50830000      -6.00360000      -0.11820000
H        0.97470000      -6.00720000       1.59200000
H       -0.67650000      -6.45390000       1.12750000
