21
Properties=species:S:1:pos:R:3 gdb_73800=T pbc="F F F"
C        0.06980000       1.59950000      -0.21770000
C        0.04420000       0.10490000      -0.13200000
C       -0.98550000      -0.68860000       0.18920000
C       -2.38800000      -0.31360000       0.54830000
C       -0.59650000      -2.16640000       0.07010000
C        0.95670000      -2.11620000       0.00110000
C        1.27910000      -0.69380000      -0.49670000
C       -1.10490000      -3.02160000       1.13790000
C       -1.51660000      -3.72330000       2.02390000
H        0.84500000       2.01630000       0.43820000
H        0.31740000       1.92890000      -1.23560000
H       -0.88400000       2.05530000       0.05750000
H       -2.52690000       0.76800000       0.61000000
H       -3.10010000      -0.70200000      -0.19240000
H       -2.67370000      -0.75380000       1.51030000
H       -0.99880000      -2.55250000      -0.88100000
H        1.35290000      -2.25610000       1.01040000
H        1.36980000      -2.90750000      -0.62880000
H        1.44280000      -0.66670000      -1.58450000
H        2.19220000      -0.28930000      -0.04320000
H       -1.88030000      -4.34620000       2.80300000
