14
Properties=species:S:1:pos:R:3 gdb_20643=T pbc="F F F"
C        0.00470000       1.52030000      -0.00400000
C       -0.02200000       0.01680000       0.00540000
C       -1.16250000      -0.70590000      -0.15220000
C       -1.14600000      -2.15870000      -0.13700000
O       -2.09640000      -2.90990000      -0.26700000
N        0.14700000      -2.67150000       0.05340000
N        1.29110000      -2.00080000       0.21200000
C        1.20850000      -0.70240000       0.18870000
H        0.65490000       1.89370000      -0.80330000
H       -0.99410000       1.93620000      -0.15130000
H        0.40430000       1.90900000       0.93940000
H       -2.12990000      -0.23760000      -0.29540000
H        0.22980000      -3.67970000       0.07420000
H        2.14620000      -0.17220000       0.31880000
