18
Properties=species:S:1:pos:R:3 gdb_47136=T pbc="F F F"
N        0.03510000       1.26750000      -0.30630000
C        0.00410000       0.00960000      -0.14530000
O        1.11780000      -0.77810000      -0.01980000
C        0.72500000      -2.14330000       0.14700000
C       -0.76980000      -2.11060000       0.11020000
C       -1.19810000      -0.85240000      -0.06090000
C       -2.59090000      -0.38560000      -0.15130000
C       -3.04290000       0.94790000       0.42250000
C       -3.01040000       0.75700000      -1.06250000
H        0.99910000       1.60250000      -0.32830000
H        1.16730000      -2.74260000      -0.66070000
H        1.12890000      -2.51660000       1.09810000
H       -1.38340000      -2.99630000       0.21050000
H       -3.30990000      -1.19450000      -0.06310000
H       -4.00030000       0.95840000       0.93160000
H       -2.27850000       1.58530000       0.84770000
H       -2.22480000       1.27040000      -1.60160000
H       -3.94490000       0.63320000      -1.59850000
