21
Properties=species:S:1:pos:R:3 gdb_126756=T pbc="F F F"
C       -0.14760000       1.53900000      -0.13700000
C        0.06240000       0.02520000      -0.05800000
N        0.79840000      -0.50050000      -1.19360000
N        0.14100000      -0.69620000      -2.36170000
C        1.06810000      -1.11120000      -3.22200000
C        0.70020000      -1.44530000      -4.63370000
C        2.33600000      -1.17640000      -2.60020000
C        2.12920000      -0.77350000      -1.29520000
C        3.08830000      -0.63970000      -0.15660000
H        0.80820000       2.07190000      -0.13230000
H       -0.67900000       1.79470000      -1.05700000
H       -0.73850000       1.88550000       0.71670000
H        0.60530000      -0.24540000       0.85190000
H       -0.90180000      -0.48970000      -0.03490000
H        1.24990000      -0.82430000      -5.34990000
H        0.92740000      -2.49050000      -4.87210000
H       -0.36880000      -1.28290000      -4.78750000
H        3.27450000      -1.48330000      -3.03540000
H        3.14190000       0.38660000       0.22490000
H        2.82190000      -1.28820000       0.68640000
H        4.09020000      -0.92260000      -0.48650000
