17
Properties=species:S:1:pos:R:3 gdb_126926=T pbc="F F F"
C        0.02720000       1.56710000       0.07350000
C       -0.05720000       0.04520000       0.01400000
N        0.72230000      -0.54660000       1.08510000
C        0.83640000      -1.88160000       1.31470000
C        0.38200000      -2.87640000       0.41820000
N        0.55600000      -4.15380000       0.69350000
C        1.17230000      -4.41860000       1.85420000
N        1.60190000      -3.52000000       2.73510000
N        1.43120000      -2.23530000       2.46860000
H        1.06410000       1.90420000      -0.01800000
H       -0.55140000       2.01150000      -0.73980000
H       -0.37610000       1.94540000       1.01890000
H       -1.10990000      -0.27280000       0.07100000
H        0.32670000      -0.30530000      -0.95330000
H        0.98410000       0.03370000       1.86860000
H       -0.11950000      -2.62260000      -0.51190000
H        1.33580000      -5.45910000       2.11280000
