17
Properties=species:S:1:pos:R:3 gdb_57136=T pbc="F F F"
C        0.03700000       1.40870000       0.03190000
C       -0.07200000      -0.12420000      -0.00390000
C       -1.47010000      -0.55470000       0.00050000
C       -2.62540000      -0.90670000       0.02130000
C       -3.93170000      -1.30340000       0.04330000
N       -5.04290000      -1.64150000       0.06510000
N        0.59350000      -0.63890000      -1.20620000
C        2.02620000      -0.89840000      -1.06660000
C        1.05530000      -2.02350000      -1.14730000
H        1.09110000       1.69740000       0.06400000
H       -0.41650000       1.83650000      -0.86470000
H       -0.46490000       1.81190000       0.91460000
H        0.39390000      -0.53070000       0.91480000
H        2.63600000      -0.62690000      -1.92260000
H        2.48770000      -0.70970000      -0.09840000
H        0.86910000      -2.58640000      -0.23440000
H        0.93990000      -2.59270000      -2.06420000
