19
Properties=species:S:1:pos:R:3 gdb_5614=T pbc="F F F"
C       -0.00520000       1.57100000       0.07950000
C       -0.03500000       0.03660000      -0.03790000
C        0.68910000      -0.49200000      -1.24370000
C        0.11060000      -0.89680000      -2.42630000
N        1.10770000      -1.29000000      -3.28190000
C        2.32350000      -1.14720000      -2.66180000
C        2.10730000      -0.65310000      -1.39540000
C        3.16170000      -0.35650000      -0.37120000
H        1.02150000       1.94490000       0.14360000
H       -0.47010000       2.03540000      -0.79590000
H       -0.54230000       1.90940000       0.97220000
H        0.39570000      -0.39770000       0.87390000
H       -1.07870000      -0.29840000      -0.06690000
H       -0.92660000      -0.94090000      -2.72010000
H        0.96890000      -1.64370000      -4.21120000
H        3.24090000      -1.41280000      -3.16360000
H        3.23020000       0.71400000      -0.14130000
H        2.96480000      -0.87100000       0.57730000
H        4.14790000      -0.67840000      -0.71910000
