14
Properties=species:S:1:pos:R:3 gdb_27332=T pbc="F F F"
N        0.01740000       1.36260000       0.14630000
C       -0.04760000      -0.01020000       0.05370000
C       -1.17250000      -0.75140000       0.02960000
O       -1.14680000      -2.13210000      -0.00760000
C        0.03110000      -2.75800000      -0.01500000
O       -0.09560000      -4.08990000      -0.04240000
C        1.22760000      -2.12290000      -0.00240000
C        1.28260000      -0.68490000       0.01730000
O        2.30750000      -0.00720000      -0.00570000
H        0.95330000       1.68780000      -0.07080000
H       -0.72750000       1.89890000      -0.26900000
H       -2.18920000      -0.38660000       0.04130000
H       -1.03720000      -4.30550000      -0.04830000
H        2.14110000      -2.70030000      -0.02350000
