19
Properties=species:S:1:pos:R:3 gdb_74951=T pbc="F F F"
C       -0.08940000       1.54840000       0.06440000
C       -0.00470000       0.05140000      -0.01240000
C        0.00170000      -0.62940000      -1.16150000
C        0.06510000      -2.13850000      -1.13940000
C        1.48810000      -2.64170000      -0.82820000
O        1.56400000      -2.47580000       0.58930000
C        0.23700000      -2.20920000       1.05030000
C        0.06140000      -0.70490000       1.29930000
O       -0.62380000      -2.63210000       0.01980000
H        0.78260000       1.96810000       0.58200000
H       -0.14800000       2.00110000      -0.92910000
H       -0.97150000       1.86400000       0.63660000
H       -0.02290000      -0.12330000      -2.12240000
H       -0.38320000      -2.59760000      -2.02180000
H        1.60700000      -3.69980000      -1.09640000
H        2.27400000      -2.05060000      -1.30700000
H        0.03780000      -2.81080000       1.94220000
H        0.90380000      -0.34920000       1.90550000
H       -0.84800000      -0.52360000       1.88980000
