9
Properties=species:S:1:pos:R:3 gdb_94=T pbc="F F F"
O       -0.00030000       0.00680000      -0.17140000
C       -0.01420000       1.18670000      -0.00980000
C       -1.08280000       2.27650000       0.15570000
O       -0.03860000       3.26460000       0.27510000
C        1.02860000       2.30520000       0.12770000
H       -1.72920000       2.43650000      -0.71670000
H       -1.70220000       2.19350000       1.05800000
H        1.67370000       2.23920000       1.01320000
H        1.64710000       2.48220000      -0.76150000
