16
Properties=species:S:1:pos:R:3 gdb_45616=T pbc="F F F"
O       -0.04660000       0.00380000      -0.04470000
C       -0.04200000       1.21090000      -0.02530000
C       -1.21560000       2.18640000      -0.21880000
C       -0.58090000       3.55090000      -0.08580000
C        0.72800000       3.37530000       0.15260000
N        1.06730000       2.01880000       0.17950000
C       -1.28490000       4.83510000      -0.16400000
C       -2.52260000       5.03850000      -0.93900000
O       -2.57340000       4.91640000       0.47960000
H       -1.67590000       2.00440000      -1.19650000
H       -1.98800000       1.99890000       0.53440000
H        1.49240000       4.12250000       0.31460000
H        1.98690000       1.64530000       0.34540000
H       -0.65580000       5.71050000       0.00280000
H       -2.74680000       6.02820000      -1.33640000
H       -2.95420000       4.20910000      -1.49750000
