16
Properties=species:S:1:pos:R:3 gdb_75101=T pbc="F F F"
C        0.01670000       1.54840000       0.20910000
C       -0.01240000       0.05750000       0.02610000
C       -1.12950000      -0.67460000       0.05810000
C       -1.14550000      -2.15560000      -0.12570000
C        0.20630000      -2.80040000      -0.35060000
O        0.36430000      -3.97450000      -0.50990000
O        1.30670000      -1.98290000      -0.37200000
C        1.28150000      -0.60310000      -0.19950000
N        2.36870000       0.04320000      -0.24080000
H        0.64490000       1.82260000       1.06160000
H        0.45510000       2.03820000      -0.66530000
H       -0.99180000       1.93770000       0.36860000
H       -2.08820000      -0.19100000       0.22430000
H       -1.59670000      -2.65950000       0.73930000
H       -1.77900000      -2.44420000      -0.97500000
H        3.15470000      -0.58770000      -0.40610000
