21
Properties=species:S:1:pos:R:3 gdb_82919=T pbc="F F F"
C        0.03750000       1.54650000      -0.02050000
C       -0.01300000       0.03960000      -0.08790000
C        0.69610000      -0.73010000      -1.14470000
N        1.24200000      -0.65930000       0.23280000
C        1.12160000      -2.00900000       0.83470000
C        0.52360000      -2.94270000      -0.20890000
N       -0.86660000      -2.60420000      -0.58830000
C        0.25900000      -2.15240000      -1.44300000
C        0.40850000      -2.68190000      -2.84510000
H        0.99560000       1.92050000      -0.39230000
H       -0.76630000       1.99020000      -0.61850000
H       -0.08010000       1.89280000       1.01230000
H       -0.93250000      -0.41980000       0.26550000
H        1.26200000      -0.21980000      -1.92120000
H        2.12860000      -2.35090000       1.10050000
H        0.52600000      -1.97020000       1.75290000
H        0.83930000      -3.98210000      -0.24620000
H       -1.30380000      -3.41700000      -1.01900000
H       -0.29210000      -2.19140000      -3.53060000
H        1.42090000      -2.50800000      -3.22550000
H        0.21650000      -3.75920000      -2.88250000
