19
Properties=species:S:1:pos:R:3 gdb_83293=T pbc="F F F"
C       -0.32460000       1.55380000       0.09310000
C        0.01820000       0.07340000      -0.03570000
C        0.82350000      -0.45000000      -1.25190000
C        2.18600000       0.26580000      -1.39940000
C        2.99470000      -0.35940000      -0.22300000
C        1.94250000      -1.33560000       0.36950000
O        1.20800000      -1.75820000      -0.78530000
C        0.91510000      -0.45930000       1.09700000
O        0.85190000      -0.19580000       2.26870000
H        0.56630000       2.18710000       0.04660000
H       -1.01150000       1.87480000      -0.69590000
H       -0.80230000       1.73400000       1.06020000
H       -0.90660000      -0.51820000      -0.00430000
H        0.24740000      -0.55030000      -2.17160000
H        2.63510000       0.01960000      -2.36350000
H        2.10710000       1.35300000      -1.33660000
H        3.86070000      -0.91950000      -0.58160000
H        3.34110000       0.37440000       0.50870000
H        2.32350000      -2.18510000       0.93260000
