21
Properties=species:S:1:pos:R:3 gdb_78027=T pbc="F F F"
C       -0.19320000       1.53020000       0.18320000
C        0.03340000       0.03870000       0.02950000
C        0.67440000      -0.66510000      -1.16410000
C        1.57470000       0.10680000      -2.11580000
C        0.90750000       1.03250000      -3.12210000
O        2.43110000       0.88640000      -1.26700000
C        2.62520000       0.18320000      -0.04700000
C        1.36720000      -0.65150000       0.17110000
O        1.49870000      -1.82070000       0.92190000
H        0.64700000       2.11070000      -0.19980000
H       -1.09560000       1.84430000      -0.35300000
H       -0.33710000       1.78870000       1.23880000
H       -0.76900000      -0.56880000       0.44440000
H        0.20820000      -1.57490000      -1.52460000
H        2.18530000      -0.63110000      -2.66560000
H        0.25310000       1.75300000      -2.62640000
H        1.66520000       1.58310000      -3.68730000
H        0.30940000       0.44950000      -3.82940000
H        3.48420000      -0.50430000      -0.10030000
H        2.82410000       0.92820000       0.73230000
H        1.39190000      -1.59290000       1.85140000
