18
Properties=species:S:1:pos:R:3 gdb_56344=T pbc="F F F"
O        0.79590000       0.47310000      -1.95450000
C        0.93480000       1.57290000      -1.60330000
O        1.08580000       2.67320000      -1.25810000
C       -1.61910000       1.88090000       0.71190000
C       -1.90420000       0.69930000       0.16920000
N       -5.33520000       1.26510000       1.51760000
H       -5.76350000       2.15020000       1.77490000
H       -4.32760000       1.40570000       1.52420000
C       -5.76160000       0.85400000       0.17540000
C       -5.37610000       1.88860000      -0.86650000
O       -4.55880000       1.73090000      -1.73940000
H       -1.00680000       1.97520000       1.60400000
H       -1.97920000       2.80820000       0.27610000
H       -2.51940000       0.61880000      -0.72180000
H       -1.53700000      -0.22920000       0.59650000
H       -5.29700000      -0.10220000      -0.08040000
H       -6.85070000       0.72140000       0.17580000
H       -5.87060000       2.87990000      -0.72040000
