20
Properties=species:S:1:pos:R:3 gdb_120281=T pbc="F F F"
O        0.18660000       1.41630000       0.21520000
C        0.08360000       0.01620000      -0.00430000
C       -1.34230000      -0.50770000       0.18550000
C       -1.43940000      -2.02040000       0.03590000
C       -2.81740000      -2.68740000       0.08950000
N       -3.56350000      -2.22360000      -1.11020000
C       -2.61320000      -3.36160000      -1.21920000
C       -1.25470000      -2.67240000      -1.40900000
O       -1.15690000      -1.81580000      -2.51380000
H       -0.31940000       1.85510000      -0.47580000
H        0.44800000      -0.26270000      -1.00300000
H        0.75300000      -0.44450000       0.73180000
H       -1.69710000      -0.20940000       1.18000000
H       -2.00690000      -0.02740000      -0.54270000
H       -0.75920000      -2.51950000       0.73550000
H       -3.35390000      -3.03650000       0.96340000
H       -4.50410000      -2.61060000      -1.06250000
H       -2.94400000      -4.32830000      -1.57850000
H       -0.40650000      -3.35810000      -1.44950000
H       -2.02380000      -1.39060000      -2.57880000
