20
Properties=species:S:1:pos:R:3 gdb_120568=T pbc="F F F"
C        0.07200000       1.52450000      -0.18730000
C       -0.02720000       0.03150000       0.06860000
N        1.26040000      -0.71200000       0.08270000
C        0.48250000      -0.61590000       1.32660000
C        1.09750000       0.13610000       2.48310000
C        2.11770000      -0.71860000       3.22960000
O        2.61640000       0.05330000       4.31110000
C       -1.15330000      -0.61390000      -0.56340000
C       -2.08510000      -1.14230000      -1.11170000
H        0.98810000       1.93070000       0.24290000
H        0.08720000       1.71820000      -1.26380000
H       -0.78780000       2.04890000       0.24060000
H        1.13370000      -1.62380000      -0.34920000
H       -0.07050000      -1.50750000       1.62080000
H        1.59900000       1.04260000       2.13610000
H        0.31240000       0.44310000       3.18440000
H        1.63840000      -1.64490000       3.58890000
H        2.92060000      -1.01020000       2.53570000
H        3.30020000      -0.45680000       4.75460000
H       -2.91060000      -1.61020000      -1.58830000
