19
Properties=species:S:1:pos:R:3 gdb_111597=T pbc="F F F"
C        0.20280000       1.37120000       0.15480000
O       -0.27910000       0.08270000      -0.16230000
C        0.46440000      -0.55720000      -1.16120000
C        1.83180000      -1.23440000      -0.82610000
C        1.44520000      -2.13060000       0.36630000
C        0.48950000      -2.99690000      -0.47600000
O        1.42170000      -3.59960000      -1.42780000
C        1.47370000      -2.28600000      -1.98750000
C        0.02040000      -1.95630000      -1.57200000
H        1.22270000       1.34040000       0.56560000
H        0.20670000       2.02860000      -0.72860000
H       -0.46780000       1.79380000       0.90650000
H        0.55230000       0.08760000      -2.05020000
H        2.76780000      -0.68060000      -0.80190000
H        2.26470000      -2.73500000       0.75850000
H        0.95890000      -1.57340000       1.16810000
H       -0.17900000      -3.71230000      -0.00100000
H        1.91770000      -2.20420000      -2.97740000
H       -0.86000000      -2.18260000      -2.16920000
