17
Properties=species:S:1:pos:R:3 gdb_6436=T pbc="F F F"
C        0.38880000       1.30030000       0.09920000
C       -0.07320000      -0.15970000      -0.00520000
C        0.83070000      -1.02870000      -0.95080000
C        1.56140000      -1.59680000       0.28550000
O        2.79690000      -0.92380000       0.44500000
C        0.41760000      -1.05380000       1.18870000
C       -1.50360000      -0.23530000      -0.27850000
N       -2.63770000      -0.30800000      -0.49420000
H        1.46260000       1.32240000       0.29820000
H        0.19200000       1.83760000      -0.83310000
H       -0.13380000       1.81670000       0.90990000
H        0.26350000      -1.78800000      -1.49120000
H        1.45990000      -0.47270000      -1.64800000
H        1.70120000      -2.68440000       0.30230000
H        3.16980000      -1.17860000       1.29550000
H        0.72400000      -0.51270000       2.08740000
H       -0.30800000      -1.82420000       1.45780000
