12
Properties=species:S:1:pos:R:3 gdb_3276=T pbc="F F F"
N        0.00850000       1.11890000       0.36750000
C       -0.02200000      -0.07980000       0.01430000
O        1.00020000      -0.94020000      -0.38260000
C        0.06020000      -2.01980000      -0.64800000
C       -0.22910000      -2.86920000       0.59330000
O       -1.26930000      -1.95120000       1.02110000
C       -1.10390000      -1.13500000      -0.15710000
H        0.96100000       1.48850000       0.37590000
H        0.20370000      -2.46250000      -1.63080000
H       -0.64470000      -3.86100000       0.38040000
H        0.59400000      -2.94860000       1.31020000
H       -2.03810000      -0.88490000      -0.65830000
