12
Properties=species:S:1:pos:R:3 gdb_21675=T pbc="F F F"
N       -0.01010000       1.33880000       0.09720000
C       -0.01370000      -0.04110000       0.04620000
N       -1.13730000      -0.67370000       0.08360000
O       -1.04350000      -2.07160000       0.14360000
C        0.15960000      -2.74740000      -0.00600000
N        0.17680000      -4.00790000      -0.11950000
N        1.35200000      -2.02010000       0.00210000
C        1.26540000      -0.74710000       0.03290000
H        0.70490000       1.79340000      -0.45260000
H       -0.92410000       1.75510000      -0.02290000
H       -0.77650000      -4.37310000      -0.12110000
H        2.18670000      -0.16260000       0.05670000
