19
Properties=species:S:1:pos:R:3 gdb_53059=T pbc="F F F"
C       -0.06570000       1.43360000      -0.05070000
C        0.00610000      -0.01860000      -0.03570000
C        0.08250000      -1.22390000      -0.02960000
C        0.10880000      -2.63880000      -0.00280000
C        1.13220000      -3.43530000      -0.35590000
C        0.84100000      -4.89260000      -0.10630000
O        1.62660000      -5.41040000       0.97160000
C       -0.68890000      -4.90820000       0.15670000
C       -1.08760000      -3.44930000       0.47860000
H        0.66690000       1.87450000       0.63510000
H        0.14050000       1.83010000      -1.05140000
H       -1.05780000       1.78790000       0.24960000
H        2.09700000      -3.08710000      -0.70470000
H        1.10760000      -5.53230000      -0.95380000
H        1.58330000      -4.76870000       1.68940000
H       -1.21000000      -5.24420000      -0.74490000
H       -0.92880000      -5.61330000       0.95600000
H       -1.25850000      -3.27370000       1.54810000
H       -2.00730000      -3.14400000      -0.03030000
