19
Properties=species:S:1:pos:R:3 gdb_98856=T pbc="F F F"
C       -0.03110000       1.42300000      -0.23290000
O       -0.12190000      -0.00770000      -0.20350000
C        0.65240000      -0.65330000      -1.10070000
O        1.36930000      -0.10620000      -1.89650000
C        0.52190000      -2.15600000      -0.90680000
O        0.96470000      -2.89260000      -2.04840000
C        2.13320000      -3.37830000      -1.35290000
C        1.63740000      -2.78960000      -0.01260000
C        2.57010000      -1.89080000       0.78320000
H        0.99590000       1.74850000      -0.04880000
H       -0.35110000       1.80740000      -1.20460000
H       -0.69330000       1.78000000       0.55580000
H       -0.50850000      -2.39560000      -0.62420000
H        2.22250000      -4.46840000      -1.41370000
H        3.05100000      -2.91530000      -1.73710000
H        1.20720000      -3.55930000       0.63270000
H        3.00980000      -1.11580000       0.14800000
H        2.03890000      -1.39910000       1.60460000
H        3.38780000      -2.47520000       1.21770000
