16
Properties=species:S:1:pos:R:3 gdb_11482=T pbc="F F F"
O       -0.51680000       0.09160000       1.23280000
C       -0.00010000       1.01750000       0.64600000
C        1.42270000       1.47980000       0.92330000
C        2.38220000       0.98610000      -0.14820000
C        2.59450000       1.76720000      -1.42120000
C        3.68750000       1.70380000      -0.38480000
C       -0.71640000       1.74050000      -0.39560000
C       -1.32100000       2.35320000      -1.23750000
H        1.44900000       2.57510000       0.96270000
H        1.70390000       1.08440000       1.90430000
H        2.40980000      -0.09610000      -0.24090000
H        2.72400000       1.21550000      -2.34540000
H        2.05640000       2.70160000      -1.53610000
H        3.88690000       2.59660000       0.19890000
H        4.56770000       1.10640000      -0.59430000
H       -1.86550000       2.88200000      -1.98180000
