21
Properties=species:S:1:pos:R:3 gdb_112027=T pbc="F F F"
C        0.07820000       1.75490000      -0.47060000
O       -0.27100000       0.39580000      -0.36770000
C        0.57410000      -0.47950000      -1.10470000
C        1.90850000      -0.76770000      -0.43720000
C        2.15460000      -2.07310000      -0.33160000
C        1.04520000      -2.92440000      -0.88760000
C        0.11700000      -3.59280000       0.17160000
C       -0.84700000      -2.37840000       0.05540000
C       -0.06990000      -1.87590000      -1.20050000
H        1.06390000       1.97340000      -0.03230000
H        0.08850000       2.09470000      -1.51890000
H       -0.67680000       2.32560000       0.07630000
H        0.72830000      -0.04160000      -2.10700000
H        2.57260000       0.02190000      -0.10290000
H        3.04730000      -2.50380000       0.11230000
H        1.38560000      -3.57610000      -1.69880000
H       -0.32510000      -4.52370000      -0.19380000
H        0.55730000      -3.78170000       1.15450000
H       -1.90010000      -2.61700000      -0.10630000
H       -0.77830000      -1.67890000       0.88850000
H       -0.61350000      -2.02500000      -2.13420000
