20
Properties=species:S:1:pos:R:3 gdb_78752=T pbc="F F F"
C       -0.37290000       1.55250000       0.00270000
C        0.02600000       0.08860000       0.04230000
C        1.01310000      -0.51770000      -0.98780000
O        1.99720000       0.42550000      -1.38880000
C        2.73190000       0.78660000      -0.21620000
C        2.33560000      -0.21710000       0.85850000
C        3.25580000      -0.42500000       2.03180000
C        1.59780000      -1.30910000       0.20140000
N        0.88430000      -0.40620000       1.18850000
H        0.45930000       2.21010000      -0.25230000
H       -1.15780000       1.70880000      -0.74500000
H       -0.77060000       1.85380000       0.97750000
H       -0.87490000      -0.53440000       0.08660000
H        0.62690000      -1.01850000      -1.87510000
H        3.80580000       0.71160000      -0.43210000
H        2.51980000       1.82320000       0.07650000
H        3.37090000       0.50270000       2.60310000
H        2.84760000      -1.18190000       2.70500000
H        4.24950000      -0.74430000       1.69960000
H        1.72170000      -2.37600000       0.34300000
