18
Properties=species:S:1:pos:R:3 gdb_81831=T pbc="F F F"
C       -0.25750000       1.48870000      -0.08540000
N        0.05530000       0.06890000      -0.08240000
C        0.69060000      -0.50920000      -1.26320000
C        2.13710000      -0.07090000      -1.44690000
C        1.80590000      -1.10760000      -0.42440000
O        2.42260000      -2.33670000      -0.43190000
C        1.15290000      -0.45340000       0.81480000
C        1.94350000       0.50040000       1.57200000
C        2.59260000       1.29990000       2.19400000
H        0.58980000       2.14420000      -0.34130000
H       -1.05690000       1.66240000      -0.81320000
H       -0.62680000       1.78330000       0.90090000
H        0.09500000      -0.92630000      -2.06770000
H        2.61360000      -0.48200000      -2.33140000
H        2.47940000       0.91850000      -1.15770000
H        1.79580000      -2.99690000      -0.11400000
H        0.73290000      -1.20510000       1.49700000
H        3.17250000       1.99710000       2.74680000
