15
Properties=species:S:1:pos:R:3 gdb_27037=T pbc="F F F"
C        0.09190000       1.52320000       0.05060000
C       -0.01550000       0.03940000       0.02410000
C       -1.09120000      -0.78780000      -0.07430000
O       -0.65540000      -2.10920000      -0.05420000
C        0.71130000      -2.11430000       0.05790000
N        1.49820000      -3.09990000       0.11090000
N        1.08760000      -0.77540000       0.10490000
C       -2.49910000      -0.49380000      -0.18660000
O       -3.38540000      -1.31760000      -0.26950000
H        0.70740000       1.88310000      -0.78170000
H       -0.89040000       1.98930000      -0.02460000
H        0.56270000       1.86220000       0.98030000
H        0.98740000      -3.97730000       0.05850000
H        2.04890000      -0.49240000       0.18730000
H       -2.71410000       0.59740000      -0.19110000
