17
Properties=species:S:1:pos:R:3 gdb_79648=T pbc="F F F"
C       -0.02340000       1.61370000       0.04260000
C        0.11310000       0.09830000      -0.06900000
C        0.48290000      -0.75270000      -1.24250000
C        1.78410000      -0.35890000      -1.96020000
C        2.55760000       0.76430000      -1.37930000
N        2.61610000      -0.55270000      -0.72060000
C        1.32850000      -0.82930000       0.03730000
C        1.38320000      -1.84190000       1.04020000
N        1.40680000      -2.65930000       1.85990000
H        0.13330000       2.12000000      -0.91180000
H       -1.03850000       1.85340000       0.37180000
H        0.66390000       2.03770000       0.78080000
H       -0.68010000      -0.40790000       0.47950000
H       -0.16640000      -1.52310000      -1.63730000
H        2.07900000      -0.83820000      -2.88710000
H        3.49690000       0.99100000      -1.87680000
H        2.10260000       1.60920000      -0.88820000
