20
Properties=species:S:1:pos:R:3 gdb_108950=T pbc="F F F"
C       -0.88480000       0.71150000       0.08540000
C        0.61700000       0.38640000       0.02990000
C        1.11070000      -0.34020000       1.23750000
N        1.96860000       0.07040000       2.08880000
C        2.09910000      -0.96870000       3.07980000
C        0.86180000      -1.33480000       3.89360000
C       -0.33320000      -0.43140000       4.08430000
C        1.16450000      -2.08240000       2.62440000
O        0.58160000      -1.59060000       1.42730000
H       -1.11120000       1.38060000       0.92100000
H       -1.20050000       1.20630000      -0.83740000
H       -1.47750000      -0.19900000       0.20610000
H        0.81880000      -0.23900000      -0.84830000
H        1.21020000       1.29830000      -0.06500000
H        3.08610000      -1.11070000       3.50390000
H        1.11890000      -1.92420000       4.77130000
H       -0.50050000       0.21610000       3.22170000
H       -1.24370000      -1.01820000       4.24520000
H       -0.18790000       0.21490000       4.95590000
H        1.36010000      -3.14690000       2.58830000
