14
Properties=species:S:1:pos:R:3 gdb_61335=T pbc="F F F"
O       -0.07320000       1.43990000       0.03520000
C        0.01990000       0.03550000       0.03100000
C        0.66810000      -0.52920000      -1.26140000
C       -0.05640000      -0.13780000      -2.45800000
C       -0.65720000       0.17750000      -3.45620000
C       -1.39690000       0.57340000      -4.62960000
O       -1.03850000       0.36100000      -5.76430000
C        0.75450000      -0.46620000       1.21120000
N        1.36030000      -0.84050000       2.12090000
H        0.81640000       1.81210000       0.06190000
H       -1.01140000      -0.32610000       0.09120000
H        1.70830000      -0.18370000      -1.32080000
H        0.71340000      -1.62320000      -1.19200000
H       -2.34540000       1.10280000      -4.40880000
