12
Properties=species:S:1:pos:R:3 gdb_611=T pbc="F F F"
C        0.17370000       1.54820000      -0.00660000
C        0.00250000       0.05870000       0.11950000
O        1.13550000      -0.75740000      -0.12500000
C        0.61900000      -0.76520000       1.20130000
C        1.44530000      -0.14400000       2.28200000
O        2.35600000       0.62460000       2.10530000
H        1.10530000       1.87380000       0.45780000
H        0.19470000       1.82510000      -1.06580000
H       -0.66910000       2.06940000       0.45930000
H       -0.92680000      -0.34510000      -0.28880000
H        0.10470000      -1.68150000       1.49630000
H        1.13050000      -0.44710000       3.30640000
