19
Properties=species:S:1:pos:R:3 gdb_66621=T pbc="F F F"
C        0.09420000       1.55700000       0.00330000
C       -0.01260000       0.06680000       0.00040000
C        0.71460000      -0.99870000      -0.79040000
C        0.75570000      -1.00470000       0.74280000
C       -0.49250000      -1.89090000       0.98730000
O       -0.49290000      -2.94820000       0.00160000
C       -0.54510000      -1.88330000      -0.97450000
C       -1.25000000      -0.90530000       0.02980000
C       -2.71190000      -0.57810000       0.07030000
H        1.14320000       1.87210000      -0.02060000
H       -0.40240000       1.99890000      -0.86860000
H       -0.36020000       1.99230000       0.90110000
H        1.60490000      -0.92060000      -1.40010000
H        1.67740000      -0.93110000       1.30450000
H       -0.78770000      -2.20630000       1.98750000
H       -0.89350000      -2.19100000      -1.95980000
H       -3.30750000      -1.49760000       0.08290000
H       -2.96790000       0.00190000       0.96430000
H       -3.01540000       0.00850000      -0.80430000
