22
Properties=species:S:1:pos:R:3 gdb_115816=T pbc="F F F"
C        0.13310000       1.48440000       0.24370000
C        0.02270000      -0.01460000      -0.04810000
C       -1.40630000      -0.53200000       0.01880000
C       -1.58930000      -2.03410000      -0.25870000
C       -2.84380000      -2.37160000       0.54660000
C       -3.95210000      -3.20100000       0.01990000
N       -3.08100000      -3.70990000       1.10050000
C       -3.07210000      -1.16150000       1.45980000
O       -1.90510000      -0.36210000       1.34600000
H        1.17500000       1.81670000       0.21060000
H       -0.42840000       2.07230000      -0.49090000
H       -0.26980000       1.71260000       1.23360000
H        0.42250000      -0.23670000      -1.04550000
H        0.62500000      -0.58350000       0.67090000
H       -2.03830000       0.04410000      -0.68270000
H       -1.68230000      -2.26180000      -1.32400000
H       -0.72680000      -2.58470000       0.13730000
H       -4.97760000      -2.99880000       0.32130000
H       -3.85190000      -3.62170000      -0.97790000
H       -2.40700000      -4.36950000       0.71740000
H       -3.96130000      -0.59440000       1.13890000
H       -3.19880000      -1.45420000       2.50500000
