15
Properties=species:S:1:pos:R:3 gdb_33612=T pbc="F F F"
N       -0.14880000      -1.12830000      -0.09870000
C       -0.08060000       0.02500000      -0.02680000
C        0.05100000       1.43470000       0.08470000
C       -0.70270000       2.47350000       0.84400000
C        0.53220000       3.36500000       1.08460000
C        0.44060000       4.47610000       0.00960000
C        0.44470000       3.29310000      -0.97040000
C        1.25110000       2.42000000       0.03680000
N       -0.78960000       2.44740000      -0.64770000
H       -1.62090000       2.37530000       1.40820000
H        0.88150000       3.52560000       2.10150000
H       -0.42050000       5.14920000       0.01450000
H        1.37080000       5.04780000      -0.05900000
H        0.62900000       3.37670000      -2.03900000
H        2.31340000       2.19860000       0.01790000
