19
Properties=species:S:1:pos:R:3 gdb_39790=T pbc="F F F"
C       -0.01450000       1.52480000       0.01070000
C        1.33600000       0.80840000      -0.00670000
C        0.05960000       0.04350000       0.00180000
C       -0.56000000      -1.03430000       0.90540000
O       -1.75230000      -1.02700000       0.01390000
C       -0.57800000      -1.02430000      -0.90120000
C        0.05540000      -2.10450000      -0.01000000
C        1.32870000      -2.87430000      -0.02690000
C       -0.02470000      -3.58550000      -0.01740000
H       -0.31190000       2.02390000       0.92730000
H       -0.33010000       2.03390000      -0.89420000
H        1.91650000       0.84250000      -0.92310000
H        1.93460000       0.83250000       0.89840000
H       -0.72770000      -1.03990000       1.98340000
H       -0.76710000      -1.01810000      -1.97560000
H        1.90910000      -2.90070000      -0.94370000
H        1.92720000      -2.91080000       0.87780000
H       -0.32410000      -4.09350000       0.89370000
H       -0.34220000      -4.08340000      -0.92780000
