23
Properties=species:S:1:pos:R:3 gdb_62937=T pbc="F F F"
C       -0.41080000       1.53160000       0.34850000
C       -0.15740000       0.02810000       0.21480000
C       -1.37690000      -0.74950000       0.71510000
C        0.28340000      -0.47750000      -1.17680000
C        1.60700000       0.09110000      -1.59840000
C        1.58410000      -1.03580000      -0.60630000
C        1.22010000      -0.55590000       0.80260000
C        2.17470000       0.40060000       1.50990000
O        1.04410000      -1.72190000       1.59760000
H        0.40650000       2.13730000      -0.05100000
H       -1.32090000       1.81310000      -0.19360000
H       -0.55330000       1.81710000       1.39740000
H       -2.25880000      -0.47530000       0.12480000
H       -1.22620000      -1.82720000       0.63590000
H       -1.60140000      -0.51440000       1.76240000
H       -0.39010000      -0.93830000      -1.89120000
H        1.93140000      -0.18920000      -2.59580000
H        1.91300000       1.09310000      -1.31090000
H        2.06270000      -1.98990000      -0.79080000
H        2.42580000       1.27060000       0.89930000
H        1.73300000       0.77330000       2.44320000
H        3.10120000      -0.12570000       1.75910000
H        0.74760000      -1.44560000       2.47140000
