19
Properties=species:S:1:pos:R:3 gdb_66575=T pbc="F F F"
C        0.03660000       1.45910000      -0.09530000
C        0.11900000      -0.03520000      -0.09600000
C       -0.95060000      -0.92770000       0.70120000
C        0.54080000      -0.99240000       0.97550000
C        0.53620000      -2.11740000      -0.10060000
C       -0.98330000      -2.35190000       0.03510000
C       -1.42670000      -2.54760000      -1.45890000
C       -0.62530000      -1.41130000      -2.10360000
C        0.31740000      -1.05260000      -1.21000000
H        1.00720000       1.90840000      -0.33170000
H       -0.68890000       1.81920000      -0.83340000
H       -0.27200000       1.83060000       0.88770000
H       -1.72160000      -0.43740000       1.28530000
H        1.10500000      -0.85740000       1.88800000
H        1.27110000      -2.91220000      -0.21260000
H       -1.33100000      -3.11830000       0.73630000
H       -1.19840000      -3.57810000      -1.76810000
H       -2.49360000      -2.39050000      -1.65870000
H       -1.11140000      -0.70950000      -2.77490000
