19
Properties=species:S:1:pos:R:3 gdb_98486=T pbc="F F F"
C        0.00870000       1.54380000      -0.11590000
C       -0.11030000       0.03670000      -0.32250000
C       -1.42000000      -0.53680000       0.18140000
O       -2.27590000       0.15200000       0.69510000
C       -1.64030000      -2.02670000       0.02480000
C       -2.49510000      -2.66570000       1.13400000
C       -3.10790000      -2.43550000      -0.19530000
C       -0.61830000      -2.82850000      -0.58520000
C        0.23400000      -3.50790000      -1.09550000
H        0.96750000       1.90890000      -0.49430000
H       -0.79370000       2.07450000      -0.63480000
H       -0.06650000       1.80070000       0.94380000
H       -0.01190000      -0.23750000      -1.38140000
H        0.70450000      -0.50720000       0.17370000
H       -2.22310000      -3.67410000       1.42050000
H       -2.76850000      -1.99160000       1.93690000
H       -3.79680000      -1.60510000      -0.29390000
H       -3.27110000      -3.28030000      -0.85290000
H        0.98800000      -4.10500000      -1.54540000
