16
Properties=species:S:1:pos:R:3 gdb_133764=T pbc="F F F"
C        0.19630000       1.22060000       0.13330000
O        0.00690000      -0.17660000      -0.03410000
C       -1.32280000      -0.64140000      -0.01480000
C       -1.32110000      -1.97950000      -0.76150000
O       -0.40470000      -2.89670000      -0.21170000
C       -1.83940000      -0.76840000       1.42770000
F       -2.01460000       0.45010000       1.98090000
F       -3.03210000      -1.38350000       1.44760000
F       -1.00450000      -1.44370000       2.21420000
H        1.25170000       1.41590000      -0.06770000
H       -0.41470000       1.78920000      -0.58200000
H       -0.04680000       1.55210000       1.14770000
H       -2.00330000       0.05800000      -0.52460000
H       -2.31260000      -2.43640000      -0.70870000
H       -1.09890000      -1.75930000      -1.81700000
H        0.43050000      -2.42460000      -0.11270000
