14
Properties=species:S:1:pos:R:3 gdb_11239=T pbc="F F F"
N        0.08000000       1.31640000       0.20470000
C       -0.03140000      -0.04430000       0.03560000
N       -1.11830000      -0.71260000       0.09980000
C       -0.76740000      -2.11820000      -0.05780000
C        0.80840000      -2.17590000      -0.03060000
N        1.15420000      -0.75840000      -0.22100000
C        1.33860000      -2.70820000       1.23170000
N        1.76950000      -3.11970000       2.22250000
H        0.77350000       1.76590000      -0.37600000
H       -0.81480000       1.78460000       0.18530000
H       -1.20540000      -2.73650000       0.73080000
H       -1.13280000      -2.50070000      -1.01850000
H        1.20450000      -2.78820000      -0.84580000
H        1.97420000      -0.43890000       0.27950000
