19
Properties=species:S:1:pos:R:3 gdb_38649=T pbc="F F F"
C        0.02900000       1.23500000       0.58570000
C        1.44810000       1.56050000       0.00130000
C        2.60300000       1.81500000       0.96990000
C        3.05310000       0.58040000       1.70480000
C        2.71230000      -0.66360000       1.36820000
C        1.84160000      -0.98540000       0.19280000
O        0.44100000      -1.23060000       0.55870000
C        0.00910000      -0.09670000      -0.21310000
C        1.44200000       0.18930000      -0.72660000
H       -0.01510000       1.07640000       1.66550000
H       -0.74060000       1.95550000       0.29690000
H        1.38240000       2.38400000      -0.71460000
H        3.46160000       2.24530000       0.43280000
H        2.30810000       2.58230000       1.69900000
H        3.69980000       0.74080000       2.56500000
H        3.05960000      -1.50410000       1.96370000
H        2.22850000      -1.85850000      -0.34700000
H       -0.86200000      -0.32260000      -0.83250000
H        1.76300000       0.13460000      -1.76600000
