19
Properties=species:S:1:pos:R:3 gdb_33874=T pbc="F F F"
C        0.05070000      -1.12240000       0.04760000
C        0.02110000       0.08100000       0.01840000
C       -0.04530000       1.50770000      -0.00560000
C        0.36940000       2.27540000      -1.25250000
C        1.19650000       2.41520000      -0.00650000
C        0.79400000       3.41580000       1.09340000
C       -0.69510000       3.73810000       0.79690000
C       -0.87820000       2.22660000       1.09090000
C        0.23090000       2.43260000       2.18040000
H        0.08360000      -2.18300000       0.07230000
H        0.80340000       1.65850000      -2.03230000
H       -0.23830000       3.08770000      -1.63140000
H        2.19110000       1.98620000       0.01910000
H        1.51280000       4.19900000       1.33530000
H       -1.13410000       4.34680000       1.58980000
H       -0.98580000       4.14960000      -0.17000000
H       -1.85070000       1.79280000       1.32000000
H        0.83990000       1.56500000       2.44590000
H       -0.13200000       2.94070000       3.07790000
