18
Properties=species:S:1:pos:R:3 gdb_54792=T pbc="F F F"
N        0.60690000       0.45800000       1.27710000
C        0.42470000      -0.24820000       0.12290000
O        1.25680000      -0.24050000      -0.76850000
C       -0.88100000      -1.01930000       0.06750000
C       -1.84880000      -0.97270000      -1.15240000
C       -0.99990000      -1.37190000      -2.37340000
C       -0.29720000      -2.60760000      -1.73030000
C       -0.97080000      -2.51770000      -0.34850000
O       -2.36740000      -2.26600000      -0.70520000
H        1.45430000       0.99260000       1.37920000
H       -0.06510000       0.46450000       2.02310000
H       -1.47180000      -0.88250000       0.97550000
H       -2.60970000      -0.19900000      -1.25500000
H       -1.64610000      -1.63580000      -3.21320000
H       -0.29410000      -0.59830000      -2.67490000
H       -0.55720000      -3.54970000      -2.21740000
H        0.78600000      -2.49750000      -1.68590000
H       -0.83320000      -3.32480000       0.37110000
