20
Properties=species:S:1:pos:R:3 gdb_85414=T pbc="F F F"
C        0.06370000       1.58290000       0.14950000
C        0.03100000       0.05710000       0.04280000
C       -1.39160000      -0.46410000      -0.11510000
O        0.78020000      -0.34540000      -1.13770000
C        2.05220000      -0.73200000      -0.82260000
N        2.91800000      -1.10660000      -1.66170000
C        2.24370000      -0.65670000       0.67440000
C        0.80160000      -0.63800000       1.19560000
O        0.58960000       0.06280000       2.40410000
H        1.08610000       1.95670000       0.24820000
H       -0.37510000       2.01980000      -0.75160000
H       -0.50300000       1.91710000       1.02090000
H       -1.89450000       0.02220000      -0.95570000
H       -1.38810000      -1.54310000      -0.29300000
H       -1.96300000      -0.26040000       0.79540000
H        2.53800000      -1.05630000      -2.60910000
H        2.85410000      -1.48500000       1.03650000
H        2.74640000       0.27910000       0.94270000
H        0.43050000      -1.67060000       1.27880000
H        0.99300000      -0.43770000       3.11950000
