15
Properties=species:S:1:pos:R:3 gdb_78155=T pbc="F F F"
C       -0.10880000       1.37520000      -0.02690000
N        0.09670000      -0.07050000       0.05650000
C        1.49040000      -0.50740000      -0.13750000
C        0.88190000      -0.51550000       1.22110000
C        0.59150000      -1.96060000       1.55940000
O        0.16570000      -2.42180000       2.58560000
N        0.94530000      -2.68780000       0.42090000
C        1.55580000      -1.94770000      -0.59380000
O        2.04000000      -2.39680000      -1.59920000
H        0.73750000       1.96740000       0.35560000
H       -0.27800000       1.64350000      -1.07340000
H       -1.00330000       1.63380000       0.54620000
H        2.24410000       0.19850000      -0.46460000
H        1.13650000       0.18370000       2.00820000
H        0.80440000      -3.68540000       0.35190000
