23
Properties=species:S:1:pos:R:3 gdb_101895=T pbc="F F F"
C        0.05800000       1.54120000      -0.11720000
C        0.06590000       0.01400000       0.00380000
C        0.71970000      -0.51950000       1.29150000
C       -0.02660000      -0.09280000       2.56260000
C        0.83440000      -2.04200000       1.21560000
O        1.55960000      -2.51470000       2.33670000
C        1.68560000      -3.90980000       2.38020000
C        2.47010000      -4.27850000       3.62750000
O        2.73580000      -5.40850000       3.93940000
H        1.07380000       1.94740000      -0.05480000
H       -0.36570000       1.85300000      -1.07670000
H       -0.53680000       2.01020000       0.67210000
H       -0.96500000      -0.36190000      -0.05720000
H        0.59430000      -0.40650000      -0.86180000
H        1.74550000      -0.12800000       1.34390000
H        0.42940000      -0.54810000       3.44450000
H       -0.01100000       0.99230000       2.69420000
H       -1.07600000      -0.41060000       2.52220000
H       -0.17010000      -2.50050000       1.19680000
H        1.34630000      -2.34260000       0.28620000
H        0.70550000      -4.41610000       2.41650000
H        2.21690000      -4.30830000       1.49850000
H        2.77980000      -3.39830000       4.23310000
