12
Properties=species:S:1:pos:R:3 gdb_280=T pbc="F F F"
C        0.08430000       1.47360000       0.00980000
C        0.05490000      -0.03190000      -0.00060000
O       -0.00290000      -0.70670000       1.00570000
C        0.09240000      -0.72320000      -1.36060000
N        0.18410000      -2.07960000      -1.24550000
N        0.05640000       0.00970000      -2.41050000
H        1.00530000       1.83060000      -0.46070000
H       -0.73540000       1.87000000      -0.59490000
H        0.01790000       1.83060000       1.03780000
H        0.03280000      -2.45540000      -0.32130000
H       -0.00900000      -2.66730000      -2.03820000
H        0.07800000      -0.55240000      -3.26470000
