19
Properties=species:S:1:pos:R:3 gdb_50507=T pbc="F F F"
O       -0.22160000       0.02040000      -0.14190000
C       -0.06100000       1.20200000       0.01410000
C        1.26720000       1.92090000      -0.02060000
C        1.33740000       2.95410000      -1.16880000
C        2.37860000       3.96970000      -0.67900000
C        2.03230000       4.15520000       0.81640000
C        1.51210000       2.75790000       1.27180000
C        3.22800000       4.60420000       1.62330000
O        3.31920000       5.64450000       2.21970000
H       -0.92870000       1.88230000       0.19880000
H        2.04870000       1.16710000      -0.14700000
H        1.59190000       2.49510000      -2.12730000
H        0.36480000       3.44960000      -1.28840000
H        3.38620000       3.54550000      -0.78160000
H        2.36200000       4.91300000      -1.23060000
H        1.25310000       4.91350000       0.92910000
H        0.59620000       2.87220000       1.86040000
H        2.23320000       2.24750000       1.91810000
H        4.06690000       3.86510000       1.62150000
