17
Properties=species:S:1:pos:R:3 gdb_105122=T pbc="F F F"
C       -0.31030000       1.51650000       0.09540000
C        0.19760000       0.08190000      -0.07820000
C        0.80250000      -0.48880000       1.20100000
C       -0.09990000      -1.09850000       2.25100000
C        0.80480000      -2.00960000       1.45030000
C        0.25420000      -2.88630000       0.45500000
N       -0.18990000      -3.59200000      -0.34660000
C        1.98200000       0.19460000       1.67810000
N        2.92540000       0.75080000       2.05000000
H        0.49920000       2.19130000       0.38950000
H       -0.73230000       1.88550000      -0.84320000
H       -1.09050000       1.57190000       0.86130000
H       -0.61890000      -0.57560000      -0.39220000
H        0.95180000       0.04120000      -0.87160000
H        0.14550000      -0.95810000       3.29630000
H       -1.15830000      -1.11910000       2.01930000
H        1.67540000      -2.40610000       1.96060000
