16
Properties=species:S:1:pos:R:3 gdb_102015=T pbc="F F F"
C       -0.08040000       0.78620000      -0.47880000
N       -0.43790000      -0.18320000       0.60690000
H       -1.22010000       0.19680000       1.14360000
H       -0.73610000      -1.07700000       0.15530000
C        0.67450000      -0.53590000       1.52670000
C        0.92350000       0.43990000       2.54340000
O        1.77510000       0.43250000       3.40890000
C        1.30710000      -1.79600000       1.34800000
O        2.26260000      -2.24850000       1.97750000
C        0.74100000      -2.76690000       0.30490000
O       -0.25730000      -2.62200000      -0.38210000
H        0.70330000       0.33090000      -1.08350000
H       -0.96270000       0.99400000      -1.08970000
H        0.29470000       1.70090000      -0.02110000
H        0.18280000       1.29400000       2.49120000
H        1.34570000      -3.69230000       0.25580000
