23
Properties=species:S:1:pos:R:3 gdb_110882=T pbc="F F F"
C        0.09890000       1.09870000      -0.36040000
O       -0.10370000      -0.02980000       0.46660000
C       -1.34120000      -0.63280000       0.25950000
C       -1.50870000      -1.72110000      -0.77870000
C       -0.23560000      -2.33530000      -1.36290000
C        0.22200000      -3.40090000      -0.33450000
C        1.71170000      -3.73350000      -0.38450000
C       -0.26850000      -2.85780000       1.03150000
C       -1.52540000      -2.04620000       0.71650000
H        1.09120000       1.49400000      -0.13070000
H        0.05050000       0.83780000      -1.42700000
H       -0.65040000       1.88030000      -0.16220000
H       -2.18460000       0.04730000       0.39720000
H       -2.41940000      -1.73360000      -1.36800000
H       -0.42070000      -2.77310000      -2.34810000
H        0.54820000      -1.57870000      -1.48860000
H       -0.34930000      -4.31610000      -0.54310000
H        2.31590000      -2.84190000      -0.18000000
H        1.97630000      -4.49270000       0.35950000
H        2.00480000      -4.11780000      -1.36770000
H       -0.48460000      -3.66660000       1.73550000
H        0.49910000      -2.22380000       1.48820000
H       -2.44940000      -2.29170000       1.22850000
