21
Properties=species:S:1:pos:R:3 gdb_54907=T pbc="F F F"
C        0.03860000       1.40550000      -0.35600000
C        0.10620000      -0.05910000       0.03960000
O        1.15950000      -0.61740000       0.24880000
C       -1.22000000      -0.78960000       0.12000000
C       -1.70770000      -1.42680000      -1.22890000
C       -2.10120000      -2.70360000      -0.44600000
C       -3.58890000      -2.79200000      -0.11880000
O       -1.65860000      -3.86650000      -1.11890000
C       -1.22710000      -2.20470000       0.74450000
H        1.04190000       1.79390000      -0.53480000
H       -0.58070000       1.53820000      -1.25020000
H       -0.43670000       1.98250000       0.44630000
H       -1.98730000      -0.12860000       0.53400000
H       -2.49410000      -0.90840000      -1.78220000
H       -0.87000000      -1.64450000      -1.89560000
H       -4.16810000      -2.97400000      -1.02940000
H       -3.78110000      -3.61350000       0.58300000
H       -3.95510000      -1.87200000       0.34840000
H       -1.91830000      -4.63460000      -0.59820000
H       -0.22360000      -2.63300000       0.70020000
H       -1.63380000      -2.30910000       1.75360000
