16
Properties=species:S:1:pos:R:3 gdb_10415=T pbc="F F F"
C        0.03610000       1.41820000      -0.03910000
O       -0.00340000       0.00640000       0.10950000
C       -1.27890000      -0.56930000       0.03520000
C       -1.89650000      -0.67250000      -1.40110000
N       -1.41980000      -2.06990000      -1.48620000
C       -1.15410000      -2.11680000      -0.03130000
C       -2.17870000      -0.03920000       1.07130000
N       -2.88900000       0.38250000       1.88010000
H        1.08760000       1.70250000       0.02420000
H       -0.36170000       1.73740000      -1.01160000
H       -0.52490000       1.92310000       0.75790000
H       -2.98550000      -0.54320000      -1.39780000
H       -1.45620000       0.00000000      -2.14430000
H       -2.11100000      -2.73340000      -1.81370000
H       -0.15840000      -2.47990000       0.23910000
H       -1.91210000      -2.62840000       0.57290000
