12
Properties=species:S:1:pos:R:3 gdb_49207=T pbc="F F F"
O       -0.20520000      -0.01250000       0.00180000
C       -0.05760000       1.18560000       0.00980000
C        1.22400000       1.88650000       0.00140000
C        1.34600000       3.24470000       0.01090000
N        2.64520000       3.68510000       0.00020000
C        3.53500000       2.59900000      -0.01800000
O        4.72960000       2.65880000      -0.03050000
C        2.59290000       1.33310000      -0.01780000
O        3.00540000       0.20610000      -0.03120000
H       -0.93450000       1.87660000       0.02450000
H        0.53750000       3.96640000       0.02540000
H        2.93860000       4.64900000       0.00480000
