15
Properties=species:S:1:pos:R:3 gdb_5664=T pbc="F F F"
C       -0.07280000       1.50310000       0.01090000
C        1.40230000       1.89780000      -0.00130000
C        2.19720000       0.80880000      -0.01480000
C        1.36630000      -0.39560000      -0.01310000
C        0.04790000       0.01190000       0.00190000
N       -0.74930000      -1.09300000       0.00390000
C        0.05810000      -2.21770000      -0.01000000
C        1.37920000      -1.81820000      -0.02060000
H       -0.58650000       1.89830000       0.89810000
H       -0.60370000       1.90770000      -0.86170000
H        1.72390000       2.93060000       0.00100000
H        3.28020000       0.82080000      -0.02520000
H       -1.75420000      -1.10950000       0.01360000
H       -0.37940000      -3.20330000      -0.01110000
H        2.23150000      -2.48050000      -0.03240000
