20
Properties=species:S:1:pos:R:3 gdb_101497=T pbc="F F F"
C       -0.03090000       1.42600000      -0.09130000
C        0.11120000      -0.09530000       0.03800000
C        0.85520000      -0.49130000       1.32390000
O        0.12690000      -0.12350000       2.47710000
N       -1.21980000      -0.71080000       0.13280000
C       -1.77860000      -1.15440000      -0.89280000
C       -3.09400000      -1.84070000      -1.19660000
C       -2.56360000      -1.84380000      -2.64500000
O       -1.34320000      -1.16970000      -2.20830000
H        0.95610000       1.89360000      -0.16830000
H       -0.60540000       1.68830000      -0.98380000
H       -0.53600000       1.83150000       0.78850000
H        0.66760000      -0.48300000      -0.82640000
H        1.05080000      -1.57600000       1.30290000
H        1.82230000       0.02130000       1.37250000
H       -0.77600000      -0.42380000       2.30420000
H       -3.22110000      -2.81790000      -0.72800000
H       -3.98040000      -1.23130000      -1.01320000
H       -2.33630000      -2.82160000      -3.07570000
H       -3.11080000      -1.23030000      -3.36440000
