17
Properties=species:S:1:pos:R:3 gdb_16936=T pbc="F F F"
O       -0.00560000      -0.01950000       0.07570000
C        0.00050000       1.18560000      -0.02590000
N       -1.10330000       2.01960000      -0.08450000
C       -0.65760000       3.41350000       0.04400000
C       -0.07560000       3.62630000       1.46650000
C        1.21210000       2.74130000       1.42460000
C        1.19230000       2.15390000      -0.02370000
C        0.62010000       3.34510000      -0.81720000
H       -1.98930000       1.69510000       0.27420000
H       -1.42890000       4.11910000      -0.26510000
H        0.15980000       4.68030000       1.64200000
H       -0.78260000       3.31110000       2.23800000
H        2.11310000       3.34390000       1.56800000
H        1.21580000       1.95460000       2.18210000
H        2.12410000       1.69940000      -0.35250000
H        0.40910000       3.11850000      -1.86450000
H        1.23230000       4.24830000      -0.74650000
