17
Properties=species:S:1:pos:R:3 gdb_38711=T pbc="F F F"
C       -0.02110000       1.49570000       0.15150000
C        1.33340000       0.81990000      -0.02200000
O        2.09180000       0.29740000       1.05020000
C        1.46230000      -0.98640000       1.23340000
O        0.08510000      -0.68410000       1.16660000
C        0.06910000       0.01320000      -0.08250000
C       -0.10990000      -0.97040000      -1.20870000
C        1.00860000      -1.98690000      -0.99450000
C        1.77110000      -1.96660000       0.10400000
H       -0.35370000       1.78630000       1.14110000
H       -0.32190000       2.15410000      -0.65830000
H        1.90240000       1.03420000      -0.92040000
H        1.72250000      -1.35910000       2.22620000
H       -1.09730000      -1.45150000      -1.20990000
H        0.01070000      -0.48280000      -2.18370000
H        1.18970000      -2.71400000      -1.78170000
H        2.60520000      -2.64890000       0.23110000
