18
Properties=species:S:1:pos:R:3 gdb_102890=T pbc="F F F"
C        0.89060000       0.99540000      -0.33980000
C        0.25950000      -0.37440000      -0.08480000
C       -1.26220000      -0.30310000       0.09960000
O       -1.80620000       0.20200000      -1.12140000
C       -3.18680000       0.47580000      -1.05360000
C       -3.62170000       1.03430000      -2.33610000
N       -3.99560000       1.47790000      -3.33420000
C       -1.83740000      -1.60690000       0.44920000
C       -2.31060000      -2.67560000       0.73030000
H        1.97130000       0.90020000      -0.47680000
H        0.47060000       1.45750000      -1.23600000
H        0.72010000       1.67380000       0.50380000
H        0.46350000      -1.05610000      -0.91710000
H        0.68080000      -0.83420000       0.81530000
H       -1.49180000       0.40930000       0.91130000
H       -3.76880000      -0.43380000      -0.84470000
H       -3.41470000       1.20320000      -0.25740000
H       -2.72410000      -3.62150000       0.98170000
