15
Properties=species:S:1:pos:R:3 gdb_21208=T pbc="F F F"
C       -0.04830000       1.39710000       0.09780000
N       -0.04900000      -0.03240000      -0.15080000
C       -1.22910000      -0.72630000      -0.04570000
N       -2.41680000      -0.14370000      -0.05440000
N       -3.25350000      -1.24760000      -0.00810000
C       -2.52180000      -2.37630000       0.05920000
N       -3.06510000      -3.63880000       0.20700000
N       -1.23240000      -2.09780000       0.02360000
H        0.95840000       1.78620000      -0.07180000
H       -0.73200000       1.88670000      -0.60050000
H       -0.36830000       1.66290000       1.11640000
H        0.73580000      -0.54980000       0.21390000
H       -4.24100000      -1.11690000       0.12180000
H       -3.91000000      -3.80170000      -0.32330000
H       -2.37410000      -4.35490000       0.02910000
