16
Properties=species:S:1:pos:R:3 gdb_33316=T pbc="F F F"
N       -0.06240000      -3.78250000      -0.12950000
C       -0.03970000      -2.62130000      -0.08680000
C       -0.01220000      -1.25830000      -0.03580000
C        0.01590000      -0.04940000       0.01290000
C        0.02150000       1.39290000       0.04400000
C        0.07940000       2.14680000       1.42400000
C        1.56570000       1.70150000       1.54440000
C        1.38890000       2.17080000       0.07120000
C        0.58790000       3.38180000       0.62780000
H       -0.71500000       1.79060000      -0.66180000
H       -0.69240000       2.11700000       2.19290000
H        2.20390000       2.32600000       2.17330000
H        1.75510000       0.63950000       1.70890000
H        2.13270000       2.16890000      -0.72550000
H       -0.12150000       3.86300000      -0.05040000
H        1.16220000       4.11560000       1.19680000
