20
Properties=species:S:1:pos:R:3 gdb_6530=T pbc="F F F"
C        0.18940000       1.42640000      -0.20740000
C        0.00360000      -0.04760000       0.10180000
C       -1.13250000      -0.66640000      -0.69400000
O        1.21700000      -0.82670000       0.14590000
C        0.48890000      -0.62620000       1.38050000
C        1.20820000       0.19480000       2.43450000
C       -0.07220000      -1.92540000       1.94390000
O        0.98600000      -2.81170000       2.27530000
H        1.00990000       1.87430000       0.35160000
H        0.39690000       1.55510000      -1.27520000
H       -0.72820000       1.98020000       0.02020000
H       -1.02850000      -0.39730000      -1.75070000
H       -1.13790000      -1.75410000      -0.62980000
H       -2.10160000      -0.28790000      -0.35100000
H        0.49080000       0.70390000       3.08770000
H        1.81090000      -0.47790000       3.05140000
H        1.87200000       0.93810000       1.99350000
H       -0.61050000      -1.72590000       2.87680000
H       -0.77500000      -2.39730000       1.24850000
H        1.51640000      -2.90080000       1.47390000
