18
Properties=species:S:1:pos:R:3 gdb_68986=T pbc="F F F"
O       -0.24780000       1.38310000       0.13480000
C       -0.08820000       0.01700000      -0.00860000
C       -0.39360000      -0.95040000       1.10300000
C       -1.19570000      -1.01530000      -0.18060000
C       -2.69070000      -0.81230000      -0.20920000
C       -3.43490000      -2.00640000       0.20210000
N       -4.00500000      -2.95840000       0.52470000
C       -0.36770000      -1.73890000      -1.25150000
C        0.75200000      -0.65150000      -1.10180000
H        0.36500000       1.69760000       0.80850000
H        0.29180000      -1.75180000       1.37050000
H       -0.92400000      -0.50810000       1.94110000
H       -2.96620000       0.01760000       0.45170000
H       -3.02090000      -0.53180000      -1.21700000
H       -0.08360000      -2.76790000      -1.01360000
H       -0.83430000      -1.72280000      -2.23950000
H        0.83210000      -0.02350000      -1.99150000
H        1.75090000      -0.99440000      -0.81340000
