19
Properties=species:S:1:pos:R:3 gdb_85988=T pbc="F F F"
C       -0.58340000       1.34380000       0.33060000
C       -0.07060000      -0.05670000      -0.01740000
C        0.91670000      -0.16520000      -1.22560000
C        2.09720000      -0.54470000      -0.28610000
C        2.82700000      -1.87330000      -0.49400000
C        3.08200000       0.58390000      -0.05060000
O        2.97530000       1.70130000      -0.48940000
C        1.05510000      -0.57250000       0.88650000
O        1.12900000      -0.93530000       2.02240000
H        0.23560000       2.06870000       0.34750000
H       -1.31270000       1.67630000      -0.41450000
H       -1.06840000       1.34490000       1.31110000
H       -0.90750000      -0.76310000      -0.05190000
H        0.66310000      -0.95510000      -1.93460000
H        1.08050000       0.77240000      -1.75840000
H        3.41480000      -1.85970000      -1.41760000
H        3.50260000      -2.07670000       0.34280000
H        2.11590000      -2.70180000      -0.55570000
H        3.93380000       0.30380000       0.60770000
