18
Properties=species:S:1:pos:R:3 gdb_33969=T pbc="F F F"
C        0.10120000      -1.20310000       0.03440000
C        0.04890000      -0.00080000       0.01290000
C       -0.07620000       1.41770000       0.00940000
C        0.21160000       2.27960000      -1.16740000
N        1.11320000       2.40280000      -0.01560000
C        0.37500000       3.24870000       0.99350000
C       -0.77300000       2.24050000       1.07880000
C       -2.24650000       2.43240000       1.28350000
C       -1.41430000       1.70220000       2.31610000
H        0.16630000      -2.26290000       0.04920000
H        0.68060000       1.80580000      -2.02380000
H       -0.47050000       3.09500000      -1.40360000
H        0.96430000       3.32830000       1.90990000
H        0.13920000       4.25270000       0.62300000
H       -2.59940000       3.43060000       1.52260000
H       -2.92790000       1.85040000       0.67130000
H       -1.52740000       0.62550000       2.39140000
H       -1.20570000       2.20090000       3.25730000
