19
Properties=species:S:1:pos:R:3 gdb_95647=T pbc="F F F"
C        0.02600000       1.54600000      -0.04860000
C        0.04400000       0.02530000      -0.00650000
O        0.67260000      -0.43040000      -1.19560000
C        0.65570000      -1.83570000      -1.32960000
C        1.43850000      -2.52000000      -0.19020000
C        0.87520000      -2.05570000       1.13750000
O        0.53580000      -2.79300000       2.03360000
C        0.75950000      -0.52910000       1.24240000
O        2.06650000       0.03580000       1.29490000
H        1.04660000       1.93230000      -0.04810000
H       -0.48380000       1.88480000      -0.95360000
H       -0.50170000       1.94610000       0.82220000
H       -0.99110000      -0.36050000       0.02850000
H       -0.38240000      -2.20910000      -1.34340000
H        1.10850000      -2.06250000      -2.29820000
H        1.38780000      -3.60940000      -0.25570000
H        2.48370000      -2.19810000      -0.25420000
H        0.17330000      -0.28460000       2.13850000
H        2.46430000      -0.22190000       2.13290000
