18
Properties=species:S:1:pos:R:3 gdb_41943=T pbc="F F F"
C        0.00490000       1.56110000       0.08760000
O        1.38980000       1.91190000      -0.06660000
C        2.22280000       0.75040000       0.05760000
C        1.31700000      -0.29000000       0.71000000
N        1.65900000      -1.69480000       0.58950000
C        0.65440000      -2.46950000       0.61580000
O       -0.66640000      -2.18000000       0.72880000
C       -1.08530000      -0.79070000       0.71490000
C       -0.01860000       0.03900000       0.03640000
H       -0.37130000       1.94190000       1.04990000
H       -0.56860000       2.03760000      -0.71440000
H        2.56480000       0.40610000      -0.92910000
H        3.09800000       1.01370000       0.65850000
H        1.24080000      -0.03820000       1.77910000
H        0.77880000      -3.54800000       0.54280000
H       -2.04720000      -0.78470000       0.19540000
H       -1.24780000      -0.47120000       1.75150000
H        0.05380000      -0.28210000      -1.01120000
