14
Properties=species:S:1:pos:R:3 gdb_55618=T pbc="F F F"
C       -0.02970000       1.44610000      -0.12390000
C       -0.20620000      -0.04050000       0.02370000
O       -0.71140000      -0.61310000       0.95040000
O        0.30230000      -0.67960000      -1.07570000
C        0.20100000      -2.11680000      -1.06890000
C       -0.59920000      -2.57280000      -2.19940000
C       -1.27230000      -2.96050000      -3.11330000
C        1.56490000      -2.67370000      -1.10380000
N        2.62840000      -3.12210000      -1.11230000
H        1.03290000       1.68420000      -0.22350000
H       -0.52760000       1.79130000      -1.03410000
H       -0.44700000       1.94780000       0.74780000
H       -0.27180000      -2.41210000      -0.12340000
H       -1.86440000      -3.30470000      -3.92590000
