18
Properties=species:S:1:pos:R:3 gdb_111124=T pbc="F F F"
C       -0.00270000       1.32560000      -0.20710000
O       -0.07480000       0.03170000       0.34980000
C       -1.33080000      -0.55530000       0.20610000
C       -1.60380000      -1.29390000      -1.15220000
N       -0.67300000      -2.35970000      -0.62660000
C       -1.33540000      -2.02650000       0.68990000
C       -2.80930000      -2.45270000       0.44270000
O       -3.74750000      -1.38630000       0.21130000
C       -3.00530000      -1.91470000      -0.90510000
H        0.99170000       1.71730000       0.01860000
H       -0.13790000       1.31420000      -1.29880000
H       -0.75920000       1.99790000       0.22720000
H       -2.12480000       0.09910000       0.57090000
H       -1.38550000      -0.86700000      -2.13070000
H       -0.93010000      -3.29190000      -0.96090000
H       -0.83680000      -2.34200000       1.60570000
H       -3.22170000      -3.37940000       0.82840000
H       -3.59350000      -2.36980000      -1.69570000
