17
Properties=species:S:1:pos:R:3 gdb_47699=T pbc="F F F"
O        0.00400000      -0.07060000      -0.09810000
C       -0.01470000       1.14130000      -0.03750000
C       -1.31150000       1.94160000       0.06750000
C       -1.56260000       2.70190000       1.37320000
O       -2.62800000       2.59290000       1.94910000
N       -0.60560000       3.56110000       1.85470000
C        0.79550000       3.76970000       1.51650000
C        1.18330000       3.32850000       0.10600000
N        1.12770000       1.89350000      -0.08750000
H       -1.36560000       2.65870000      -0.76090000
H       -2.13550000       1.23920000      -0.03530000
H       -0.90930000       3.97930000       2.72370000
H        1.00750000       4.84230000       1.60940000
H        1.44730000       3.24640000       2.23190000
H        0.55740000       3.84380000      -0.63300000
H        2.21130000       3.65020000      -0.07690000
H        1.98560000       1.36360000      -0.11320000
