22
Properties=species:S:1:pos:R:3 gdb_23038=T pbc="F F F"
C       -0.09100000       1.48930000      -0.04740000
C        0.00060000      -0.00960000       0.08210000
N       -0.00210000      -0.61950000       1.20550000
O       -0.07750000       0.28120000       2.28470000
C        0.10700000      -0.84440000      -1.16770000
C        1.42360000      -0.62870000      -1.95400000
C        1.42600000      -1.77550000      -2.98430000
C        0.62190000      -2.93540000      -2.32370000
C        0.07600000      -2.37100000      -0.98960000
H        0.81310000       1.96590000       0.34700000
H       -0.21830000       1.79160000      -1.08870000
H       -0.92670000       1.87110000       0.54630000
H       -0.09930000      -0.31500000       3.04030000
H       -0.72160000      -0.54510000      -1.82940000
H        1.49960000       0.36000000      -2.41540000
H        2.26680000      -0.73200000      -1.26000000
H        0.93220000      -1.44950000      -3.90580000
H        2.44100000      -2.07230000      -3.26190000
H       -0.19560000      -3.25290000      -2.97810000
H        1.24350000      -3.81890000      -2.15450000
H        0.73000000      -2.64040000      -0.15540000
H       -0.92060000      -2.74400000      -0.74050000
