20
Properties=species:S:1:pos:R:3 gdb_27873=T pbc="F F F"
C       -0.14620000       1.54020000       0.01010000
C       -0.07200000       0.03490000       0.00210000
C       -0.03140000      -0.68440000      -1.19140000
C        0.06490000      -2.07620000      -1.15990000
C        0.11060000      -2.89030000      -2.42810000
N        0.11860000      -2.76450000      -0.01310000
C        0.07740000      -2.08780000       1.14120000
C        0.13680000      -2.91470000       2.40050000
C       -0.01840000      -0.69640000       1.18780000
H        0.85860000       1.97990000       0.00610000
H       -0.67010000       1.91910000      -0.87200000
H       -0.65920000       1.91020000       0.90230000
H       -0.07650000      -0.16620000      -2.14430000
H        1.03040000      -3.48270000      -2.46680000
H       -0.72400000      -3.59820000      -2.45650000
H        0.06380000      -2.25880000      -3.31870000
H        1.05640000      -3.50830000       2.42270000
H        0.10080000      -2.29210000       3.29790000
H       -0.69820000      -3.62210000       2.43130000
H       -0.05310000      -0.18790000       2.14640000
