18
Properties=species:S:1:pos:R:3 gdb_68450=T pbc="F F F"
O       -0.24610000       1.41400000      -0.14260000
C        0.02950000       0.04450000       0.03830000
C        0.20400000      -0.48840000       1.49220000
C       -0.67620000      -1.69380000       1.07890000
C       -1.22350000      -0.84870000      -0.09750000
O        0.06290000      -2.84650000       0.68020000
C        1.07250000      -2.75260000      -0.22380000
N        1.56890000      -1.80080000      -0.88640000
C        1.16560000      -0.41240000      -0.88290000
H        0.58000000       1.90520000      -0.07000000
H        1.21030000      -0.70420000       1.85960000
H       -0.32380000       0.15340000       2.20160000
H       -1.39240000      -2.07310000       1.80670000
H       -2.11820000      -0.29800000       0.20180000
H       -1.40100000      -1.35670000      -1.04800000
H        1.49140000      -3.75120000      -0.34910000
H        0.89270000      -0.14110000      -1.91170000
H        2.06320000       0.18150000      -0.64600000
