21
Properties=species:S:1:pos:R:3 gdb_93505=T pbc="F F F"
C       -0.02250000       1.57220000      -0.05570000
C        0.00160000       0.04410000       0.01400000
C        0.73160000      -0.50210000      -1.21680000
N        0.90510000      -1.94100000      -1.13820000
C        0.96140000      -2.66550000       0.01340000
O        1.23640000      -3.85070000       0.03500000
C        0.58250000      -1.91580000       1.28450000
N        0.68950000      -0.46230000       1.20470000
C        0.25220000       0.13490000       2.45870000
H        0.98380000       1.98080000       0.08150000
H       -0.39310000       1.89260000      -1.03430000
H       -0.67940000       2.00740000       0.70000000
H       -1.04510000      -0.32430000      -0.01360000
H        0.15030000      -0.26340000      -2.11460000
H        1.70290000       0.00680000      -1.30190000
H        1.19860000      -2.44420000      -1.96330000
H       -0.44550000      -2.24390000       1.54260000
H        1.23660000      -2.29020000       2.07630000
H        0.80400000      -0.32780000       3.28240000
H        0.46570000       1.20530000       2.47750000
H       -0.82770000      -0.00950000       2.65610000
