15
Properties=species:S:1:pos:R:3 gdb_61334=T pbc="F F F"
O       -0.08330000       1.44160000       0.01810000
C        0.00690000       0.02780000       0.03970000
C        0.65830000      -0.52950000      -1.25760000
C       -0.05050000      -0.13090000      -2.46130000
C       -0.64110000       0.18850000      -3.46510000
C       -1.37180000       0.59460000      -4.63740000
O       -1.02540000       0.37020000      -5.77460000
C        0.72890000      -0.46470000       1.21510000
C        1.36650000      -0.84460000       2.16050000
H        0.79400000       1.79840000       0.19810000
H       -1.03070000      -0.32240000       0.07420000
H        1.69950000      -0.18610000      -1.30590000
H        0.69910000      -1.62400000      -1.19620000
H       -2.30740000       1.14760000      -4.41640000
H        1.90840000      -1.18370000       3.00930000
