17
Properties=species:S:1:pos:R:3 gdb_106135=T pbc="F F F"
O        0.18410000       1.36880000      -0.14620000
C        0.05390000      -0.02650000       0.08550000
C       -1.36860000      -0.48460000       0.06490000
C       -2.04640000      -1.80160000      -0.04120000
O       -2.91570000      -1.61140000       1.04300000
C       -2.53720000      -0.16080000       1.05270000
C       -3.60040000       0.52360000       0.24020000
C       -3.45040000       0.13500000      -1.03610000
C       -2.23840000      -0.70560000      -1.16380000
H       -0.30660000       1.57400000      -0.94930000
H        0.63020000      -0.61750000      -0.64600000
H        0.50350000      -0.20540000       1.06860000
H       -1.71840000      -2.80950000      -0.26620000
H       -2.32950000       0.17300000       2.06770000
H       -4.43690000       1.06250000       0.66420000
H       -4.14490000       0.31400000      -1.84780000
H       -1.77080000      -0.92520000      -2.11730000
