19
Properties=species:S:1:pos:R:3 gdb_82142=T pbc="F F F"
C       -0.08090000       1.62160000      -0.16310000
C        0.00950000       0.10860000      -0.04100000
C        0.68160000      -0.67230000      -1.18340000
N        2.05680000      -0.14400000      -1.28330000
C        1.75160000      -1.19010000      -0.27890000
C        1.11420000      -0.50160000       0.91710000
O        1.95430000       0.39240000       1.62260000
C        1.73730000       0.54660000       2.94240000
N        2.40220000       1.39180000       3.60300000
H        0.88620000       2.04020000      -0.44590000
H       -0.82040000       1.90140000      -0.92110000
H       -0.38650000       2.07420000       0.78570000
H       -0.96380000      -0.32410000       0.21070000
H        0.20230000      -1.16290000      -2.02100000
H        2.51280000      -0.61470000      -2.06390000
H        2.28010000      -2.13530000      -0.28360000
H        0.67370000      -1.22910000       1.60870000
H        0.96400000      -0.12740000       3.34000000
H        2.12380000       1.36030000       4.58160000
