15
Properties=species:S:1:pos:R:3 gdb_46657=T pbc="F F F"
O        0.01790000       0.01330000       0.19860000
C        0.02090000       1.18880000      -0.01800000
O       -1.11880000       1.88830000      -0.29470000
C       -0.83850000       3.23420000      -0.70710000
C        0.65110000       3.45600000      -0.49660000
C        1.15050000       3.29880000       0.92340000
C        0.26550000       3.33290000       2.05060000
C       -0.47890000       3.38320000       2.99330000
C        1.19320000       2.12460000      -0.06180000
H       -1.10850000       3.33660000      -1.76320000
H       -1.46060000       3.90630000      -0.10890000
H        1.18440000       4.11370000      -1.17120000
H        2.13080000       3.73090000       1.10360000
H       -1.13260000       3.40840000       3.83000000
H        2.15360000       1.71650000      -0.34440000
