16
Properties=species:S:1:pos:R:3 gdb_3511=T pbc="F F F"
O        0.06540000       1.38390000       0.62950000
C        0.14860000       0.09020000       0.05420000
C       -1.23410000      -0.53470000       0.01850000
C       -1.55710000      -2.05120000       0.02440000
C       -1.09630000      -2.03280000       1.49720000
N       -1.91270000      -0.72760000       1.40280000
C       -2.91190000      -1.59480000       0.61250000
H       -0.48370000       1.29270000       1.41850000
H        0.51570000       0.22090000      -0.97020000
H        0.88430000      -0.53400000       0.58070000
H       -1.86950000       0.07610000      -0.63270000
H       -1.36190000      -2.79930000      -0.75150000
H       -1.54270000      -2.76400000       2.17630000
H       -0.04040000      -1.89330000       1.72860000
H       -3.58480000      -1.01450000      -0.02450000
H       -3.46210000      -2.29940000       1.24150000
