17
Properties=species:S:1:pos:R:3 gdb_33054=T pbc="F F F"
C       -0.06060000       1.42040000       0.01110000
O        0.00940000       0.01360000       0.00210000
C       -1.25730000      -0.59520000       0.01050000
C       -1.06980000      -2.07360000       0.00140000
C        0.05780000      -2.81190000      -0.00930000
N       -0.32340000      -4.15400000      -0.01370000
C       -1.70450000      -4.28930000      -0.00640000
O       -2.37190000      -5.30470000      -0.00760000
N       -2.14250000      -2.96680000       0.00350000
H        0.96490000       1.79570000       0.00370000
H       -0.58910000       1.80780000      -0.87400000
H       -0.57230000       1.79730000       0.91050000
H       -1.83440000      -0.28400000       0.90210000
H       -1.85050000      -0.27520000      -0.86730000
H        1.08430000      -2.49370000      -0.01380000
H        0.28560000      -4.95200000      -0.02200000
H       -3.12070000      -2.73830000       0.01030000
