21
Properties=species:S:1:pos:R:3 gdb_41820=T pbc="F F F"
C       -0.04930000       1.38840000      -0.39480000
O        0.91890000       2.03190000       0.43380000
C        1.82720000       1.08470000       0.98910000
C        1.51820000      -0.23680000       0.26930000
C        0.01790000      -0.10550000      -0.04920000
C       -0.88410000      -0.48250000       1.13920000
C       -0.67090000       0.34190000       2.42050000
C        0.74130000       0.25630000       3.01130000
O        1.73870000       1.05660000       2.38800000
H       -1.03160000       1.83250000      -0.19650000
H        0.19440000       1.56230000      -1.45310000
H        2.84110000       1.45110000       0.80040000
H        2.10040000      -0.27930000      -0.65660000
H        1.77750000      -1.11280000       0.86800000
H       -0.26160000      -0.71760000      -0.91180000
H       -1.93240000      -0.39140000       0.82880000
H       -0.72600000      -1.54400000       1.37340000
H       -0.91810000       1.39580000       2.25530000
H       -1.36590000      -0.02960000       3.18350000
H        0.72520000       0.60970000       4.04670000
H        1.06280000      -0.79830000       3.03780000
