14
Properties=species:S:1:pos:R:3 gdb_128046=T pbc="F F F"
C       -0.02900000       1.36840000       0.05190000
N        0.17030000      -0.06700000       0.08820000
C        0.59770000      -0.61470000      -0.95180000
O        0.79180000      -1.97980000      -0.93070000
C        1.24830000      -2.57540000      -2.03700000
N        1.44940000      -3.88650000      -2.06090000
N        1.88630000      -4.02700000      -3.30970000
N        1.95670000      -2.91490000      -4.01230000
N        1.54810000      -1.96200000      -3.20750000
H        0.57810000       1.83500000       0.83500000
H        0.22410000       1.83370000      -0.91290000
H       -1.07590000       1.59140000       0.28360000
H        0.84650000      -0.14430000      -1.90570000
H        2.14630000      -4.92330000      -3.69360000
