18
Properties=species:S:1:pos:R:3 gdb_87594=T pbc="F F F"
C       -0.10260000       1.50950000      -0.10980000
C       -0.00810000       0.01190000       0.05300000
N        1.31580000      -0.59980000      -0.11640000
C        0.66150000      -0.65020000       1.21210000
C        1.31530000       0.03050000       2.36950000
C        1.26980000      -0.72670000       3.47180000
C        0.53180000      -1.99740000       3.19620000
O       -0.84860000      -1.78960000       2.80190000
C        0.13690000      -1.94950000       1.77910000
H        0.79870000       2.00190000       0.26230000
H       -0.21330000       1.77220000      -1.16730000
H       -0.96820000       1.90550000       0.43110000
H       -0.86050000      -0.53750000      -0.34640000
H        1.24390000      -1.50820000      -0.57140000
H        1.74600000       1.02070000       2.29460000
H        1.67190000      -0.46580000       4.44240000
H        0.71750000      -2.91370000       3.74760000
H        0.02470000      -2.82460000       1.14100000
