21
Properties=species:S:1:pos:R:3 gdb_110665=T pbc="F F F"
C        1.11270000       0.31370000       1.14440000
C        0.07880000       0.25820000       0.01410000
C        0.60400000      -0.45400000      -1.22870000
C        0.96330000      -1.94950000      -1.23330000
C       -0.25680000      -2.82920000      -1.47300000
C       -1.65000000      -2.25910000      -1.25770000
O       -1.68160000      -1.03820000      -2.00650000
C       -0.35290000      -0.75870000      -2.43300000
C        0.36940000      -2.11350000      -2.62850000
H        1.40350000      -0.69260000       1.46580000
H        2.02360000       0.83380000       0.82650000
H        0.71820000       0.83970000       2.01930000
H       -0.83350000      -0.22730000       0.37220000
H       -0.21470000       1.27840000      -0.26640000
H        1.47070000       0.09560000      -1.61990000
H        1.87990000      -2.38420000      -0.85030000
H       -0.10610000      -3.89740000      -1.36710000
H       -2.42060000      -2.93530000      -1.65080000
H       -1.87880000      -2.06240000      -0.20220000
H       -0.40080000      -0.03290000      -3.24410000
H        0.76390000      -2.55690000      -3.53200000
