13
Properties=species:S:1:pos:R:3 gdb_131109=T pbc="F F F"
O       -0.17550000       1.36960000       0.07660000
C        0.01140000      -0.02620000      -0.01290000
C        0.77310000      -0.39590000      -1.22950000
N        1.36510000      -0.67030000      -2.18250000
C        0.65980000      -0.60100000       1.21530000
C        0.29230000      -1.54100000       2.12260000
C        1.37580000      -1.54030000       3.04410000
N        2.30380000      -0.67540000       2.72060000
O        1.85200000      -0.07610000       1.54750000
H        0.68580000       1.77770000       0.23070000
H       -0.98840000      -0.46210000      -0.10190000
H       -0.60400000      -2.13780000       2.13900000
H        1.50650000      -2.13960000       3.93390000
