19
Properties=species:S:1:pos:R:3 gdb_70198=T pbc="F F F"
C       -0.15160000       1.55610000       0.04570000
C       -0.02930000       0.04710000       0.00030000
C       -0.80060000      -0.77110000       1.02810000
C        0.69740000      -0.65000000       1.11240000
O        1.55060000      -1.75230000       0.87100000
C        1.54890000      -2.43460000      -0.30410000
O        2.34290000      -3.32080000      -0.46190000
C        0.50350000      -2.04440000      -1.33560000
C        0.19320000      -0.54280000      -1.38100000
H        0.72680000       2.03740000      -0.39940000
H       -1.03490000       1.89310000      -0.50910000
H       -0.24840000       1.91910000       1.07350000
H       -1.39030000      -0.23890000       1.76700000
H       -1.21690000      -1.72890000       0.73810000
H        1.12520000      -0.06620000       1.91940000
H        0.86010000      -2.41130000      -2.29950000
H       -0.40390000      -2.61510000      -1.10440000
H       -0.67710000      -0.36310000      -2.02320000
H        1.03590000      -0.01520000      -1.84660000
