17
Properties=species:S:1:pos:R:3 gdb_109079=T pbc="F F F"
O        0.00230000       1.40940000      -0.07980000
C       -0.01820000      -0.00220000       0.02480000
C       -1.42560000      -0.46970000       0.11500000
C       -2.57360000       0.21170000       0.10550000
C       -3.65750000      -0.85220000       0.02680000
C       -3.55080000      -1.47410000      -1.40380000
O       -2.29140000      -2.15520000      -1.33090000
C       -1.86630000      -1.93390000       0.03700000
O       -3.06720000      -1.94250000       0.76670000
H        0.92000000       1.69610000      -0.08330000
H        0.45730000      -0.48230000      -0.84910000
H        0.54340000      -0.34850000       0.91080000
H       -2.71610000       1.27790000       0.01240000
H       -4.65760000      -0.62110000       0.38690000
H       -4.35030000      -2.20080000      -1.58230000
H       -3.53980000      -0.72430000      -2.20070000
H       -1.18720000      -2.73010000       0.33790000
