12
Properties=species:S:1:pos:R:3 gdb_21649=T pbc="F F F"
N       -0.02210000       1.35860000       0.15150000
C       -0.03500000      -0.01310000       0.04190000
N       -1.17770000      -0.64050000       0.00960000
N       -1.08950000      -1.99470000      -0.01100000
C        0.05720000      -2.75780000      -0.01960000
O        0.06030000      -3.97740000      -0.03790000
C        1.25090000      -1.89430000      -0.01490000
N        1.21580000      -0.60560000       0.01640000
H        0.81740000       1.79760000      -0.19190000
H       -0.88400000       1.82140000      -0.09230000
H       -1.97750000      -2.47800000      -0.02840000
H        2.21550000      -2.39780000      -0.04510000
