21
Properties=species:S:1:pos:R:3 gdb_75366=T pbc="F F F"
C       -0.06180000       1.50300000       0.03600000
C        0.00820000       0.00680000      -0.05460000
C        0.02930000      -0.67780000      -1.20020000
C        0.07360000      -2.18660000      -1.22920000
C       -0.10260000      -2.74650000       0.19160000
C       -1.53470000      -2.52770000       0.75720000
C       -1.38640000      -1.25400000       1.63380000
C        0.03330000      -0.77920000       1.24810000
O        0.74300000      -2.00440000       1.07530000
H        0.81820000       1.91060000       0.55060000
H       -0.12170000       1.96350000      -0.95400000
H       -0.93670000       1.83010000       0.61360000
H        0.02890000      -0.15340000      -2.15360000
H       -0.70980000      -2.58440000      -1.88840000
H        1.02900000      -2.52750000      -1.65220000
H        0.21370000      -3.79130000       0.24110000
H       -2.26800000      -2.39690000      -0.04230000
H       -1.85170000      -3.38390000       1.35700000
H       -2.15610000      -0.50500000       1.43130000
H       -1.42280000      -1.50030000       2.69850000
H        0.53580000      -0.21670000       2.04040000
