15
Properties=species:S:1:pos:R:3 gdb_22435=T pbc="F F F"
C       -0.12480000       1.42540000       1.34490000
C       -0.29100000       0.49360000       0.13160000
C        0.80940000      -0.48050000       0.07080000
N        1.68610000      -1.23220000       0.03770000
C       -1.63360000      -0.23720000       0.08440000
N       -2.41880000      -0.07860000       1.08730000
O       -3.61280000      -0.75700000       0.94430000
C       -1.92420000      -1.01700000      -1.06850000
C       -2.11850000      -1.65550000      -2.06980000
H        0.84140000       1.93150000       1.28780000
H       -0.92170000       2.17090000       1.35120000
H       -0.17530000       0.86290000       2.27810000
H       -0.22410000       1.09100000      -0.78760000
H       -4.07640000      -0.54320000       1.76250000
H       -2.29820000      -2.23090000      -2.94500000
