23
Properties=species:S:1:pos:R:3 gdb_119382=T pbc="F F F"
C       -0.82290000       0.79370000       0.47170000
O       -0.53800000      -0.57690000       0.33860000
C        0.13350000      -0.88480000      -0.86580000
C        0.38890000      -2.36430000      -0.91220000
C        1.22890000      -3.20610000       0.09510000
C        0.71600000      -4.21650000      -0.97010000
C       -0.66620000      -3.51190000      -0.85240000
C        1.12180000      -3.15870000      -2.04900000
C        0.58970000      -3.21340000      -3.47400000
H        0.09400000       1.40530000       0.47140000
H       -1.47450000       1.15810000      -0.33900000
H       -1.33760000       0.93120000       1.42590000
H       -0.47360000      -0.57350000      -1.73480000
H        1.08900000      -0.33320000      -0.92680000
H        2.30610000      -3.01390000       0.11380000
H        0.81720000      -3.30330000       1.10190000
H        0.90690000      -5.29030000      -1.00110000
H       -1.18850000      -3.62600000       0.10020000
H       -1.36140000      -3.60660000      -1.68820000
H        2.20200000      -2.96580000      -2.07020000
H       -0.48540000      -3.40080000      -3.53160000
H        0.78960000      -2.27190000      -3.99820000
H        1.09280000      -4.00850000      -4.03570000
