19
Properties=species:S:1:pos:R:3 gdb_12197=T pbc="F F F"
C        0.04240000       1.58680000      -0.11680000
C        0.07960000       0.07200000       0.01090000
C        1.06010000      -0.73390000      -0.88260000
C        1.28230000      -1.71070000       0.31180000
C        2.61900000      -2.22800000       0.54550000
N        3.69080000      -2.61950000       0.73630000
C        0.71740000      -0.60190000       1.27510000
C        1.78300000       0.20920000       2.00410000
H        1.03520000       2.02870000       0.01180000
H       -0.32550000       1.88060000      -1.10600000
H       -0.62350000       2.03460000       0.62890000
H       -0.93270000      -0.32690000      -0.12050000
H        0.68040000      -1.16920000      -1.80880000
H        1.96870000      -0.16880000      -1.10560000
H        0.58660000      -2.55260000       0.25390000
H       -0.00550000      -0.98570000       2.00020000
H        2.55100000       0.59300000       1.32530000
H        1.33210000       1.06370000       2.51810000
H        2.29040000      -0.40640000       2.75290000
