18
Properties=species:S:1:pos:R:3 gdb_114376=T pbc="F F F"
C        0.09050000       1.22160000      -0.29780000
O       -0.01660000      -0.05020000       0.30920000
C       -1.28750000      -0.62640000       0.16950000
C       -1.73030000      -1.22910000      -1.19850000
N       -1.88750000      -2.60620000      -0.58550000
C       -0.57780000      -3.00300000      -0.06520000
C        0.76910000      -2.72520000      -0.66570000
O        0.99430000      -2.32340000      -1.77900000
C       -1.37750000      -2.03310000       0.73020000
H        1.10550000       1.58080000      -0.11670000
H       -0.08010000       1.17230000      -1.38240000
H       -0.62540000       1.93620000       0.13690000
H       -2.05810000       0.03720000       0.58800000
H       -2.70920000      -0.87790000      -1.52830000
H       -1.01070000      -1.19070000      -2.01390000
H       -0.60510000      -4.00960000       0.35560000
H        1.59890000      -2.98940000       0.02870000
H       -1.80670000      -2.30760000       1.68810000
