20
Properties=species:S:1:pos:R:3 gdb_86985=T pbc="F F F"
C        0.61500000       1.45090000       0.26220000
C        0.10490000       0.04940000       0.00380000
C        0.50170000      -0.66410000      -1.30880000
C        1.05510000      -1.76420000      -0.38040000
C        2.51890000      -2.15160000      -0.50170000
C        2.97890000      -2.94890000       0.73550000
C        4.39410000      -3.30360000       0.68160000
N        5.51530000      -3.57710000       0.62050000
O        0.80260000      -0.95360000       0.79120000
H        1.68550000       1.52280000       0.04670000
H        0.08220000       2.17230000      -0.36690000
H        0.45570000       1.72870000       1.30880000
H       -0.97420000      -0.00390000       0.20480000
H       -0.31040000      -0.95060000      -1.97780000
H        1.27320000      -0.13950000      -1.87830000
H        0.42920000      -2.66970000      -0.36020000
H        2.66690000      -2.74610000      -1.41050000
H        3.13000000      -1.24800000      -0.59610000
H        2.79170000      -2.35180000       1.63400000
H        2.39220000      -3.86970000       0.83690000
