20
Properties=species:S:1:pos:R:3 gdb_40696=T pbc="F F F"
C        0.21730000       1.74570000       0.33690000
C        1.06570000       0.62810000      -0.20350000
C       -0.38990000       0.37720000       0.12480000
C       -0.71400000      -0.46310000       1.31090000
O       -2.05590000      -0.41820000       1.84180000
C       -1.58810000      -1.64840000       1.27920000
C       -2.29730000      -2.11850000       0.04250000
C       -3.76820000      -2.31530000       0.08080000
N       -3.18180000      -1.19960000      -0.68420000
H        0.39080000       2.06720000       1.35840000
H       -0.08370000       2.54120000      -0.33500000
H        1.34990000       0.64700000      -1.24920000
H        1.81560000       0.19710000       0.45190000
H       -1.06160000       0.26630000      -0.71830000
H        0.04660000      -0.43660000       2.09510000
H       -1.39510000      -2.43270000       2.01490000
H       -1.70220000      -2.77060000      -0.59450000
H       -4.23010000      -3.09550000      -0.51720000
H       -4.28160000      -2.08170000       1.00990000
H       -3.26990000      -0.35550000      -0.11900000
