14
Properties=species:S:1:pos:R:3 gdb_1649=T pbc="F F F"
C        0.05480000       1.43910000      -0.02050000
N       -0.08120000      -0.00120000      -0.03630000
C       -1.26820000      -0.63470000       0.06780000
O       -2.36240000      -0.10820000       0.18520000
C       -1.11270000      -2.17370000       0.02230000
C       -2.39350000      -2.95420000       0.13220000
O       -0.01520000      -2.67210000      -0.09450000
H        0.66910000       1.77060000       0.82390000
H        0.51020000       1.80430000      -0.94740000
H       -0.94540000       1.86390000       0.07760000
H        0.72590000      -0.60180000      -0.12630000
H       -3.07590000      -2.65800000      -0.67070000
H       -2.18520000      -4.02310000       0.08780000
H       -2.90280000      -2.69690000       1.06630000
