16
Properties=species:S:1:pos:R:3 gdb_37017=T pbc="F F F"
C        0.02280000       1.42910000      -0.01890000
C        1.33590000       0.70470000       0.01820000
C        2.05470000       0.39950000       1.31800000
C        1.05060000      -0.50610000       2.03060000
C       -0.02690000      -0.79460000       1.28920000
C        0.04630000      -0.09350000      -0.02270000
N        0.01020000      -0.73880000      -1.31910000
C        1.07770000      -0.35810000      -1.90050000
O        1.95290000       0.46410000      -1.24000000
H       -0.30390000       1.91650000       0.89270000
H       -0.25130000       1.92530000      -0.94370000
H        3.00360000      -0.11660000       1.12710000
H        2.29060000       1.29600000       1.90300000
H        1.20960000      -0.83950000       3.05050000
H       -0.85240000      -1.42740000       1.59130000
H        1.38340000      -0.61910000      -2.90680000
