23
Properties=species:S:1:pos:R:3 gdb_110142=T pbc="F F F"
C        0.18150000       1.59780000      -0.11710000
C       -0.19910000       0.12480000       0.07610000
C        0.53330000      -0.49630000       1.25180000
C        0.73830000      -1.99600000       1.42650000
C        0.22370000      -2.99610000       0.42660000
O        0.97140000      -4.20270000       0.59410000
C        1.90490000      -1.08480000       1.09050000
O        2.43230000      -1.09050000      -0.19760000
C        3.44420000      -2.07160000      -0.37190000
H        1.25030000       1.69210000      -0.33140000
H       -0.37310000       2.04370000      -0.94880000
H       -0.03490000       2.18680000       0.78150000
H       -1.28150000       0.03930000       0.23690000
H        0.02990000      -0.42280000      -0.84140000
H        0.37880000       0.04500000       2.18300000
H        0.70100000      -2.36510000       2.44830000
H       -0.84740000      -3.18200000       0.60290000
H        0.33330000      -2.61060000      -0.59430000
H        0.61610000      -4.85650000      -0.01590000
H        2.64740000      -0.90540000       1.87020000
H        4.29990000      -1.88010000       0.29330000
H        3.05840000      -3.07860000      -0.17290000
H        3.78270000      -1.99880000      -1.40850000
