14
Properties=species:S:1:pos:R:3 gdb_129501=T pbc="F F F"
N       -0.09210000       1.31630000      -0.25040000
C        0.14350000      -0.02330000      -0.14660000
O        1.22970000      -0.54590000      -0.15430000
N       -1.06180000      -0.77230000      -0.05170000
N       -2.28760000      -0.11170000       0.01690000
C       -3.16650000      -1.04970000       0.10040000
N       -2.60450000      -2.29570000       0.09100000
C       -1.20430000      -2.17160000      -0.00990000
N       -0.29230000      -3.05180000      -0.05640000
H        0.71330000       1.91010000      -0.15860000
H       -1.01290000       1.68250000      -0.07880000
H       -4.22920000      -0.87560000       0.17170000
H       -3.08490000      -3.17620000       0.14100000
H       -0.68660000      -3.98910000      -0.01010000
