15
Properties=species:S:1:pos:R:3 gdb_64757=T pbc="F F F"
O        0.01050000       1.44340000       0.03730000
C        0.02700000       0.04420000       0.00300000
C        0.87530000      -0.55400000       1.14420000
C        2.23430000      -0.01770000       1.14120000
N        3.29360000       0.44320000       1.13740000
C       -1.38760000      -0.55610000      -0.14220000
O       -1.01330000      -1.14660000      -1.42720000
C        0.24360000      -0.58480000      -1.37450000
N        1.19540000      -0.57780000      -2.18470000
H        0.87930000       1.76020000      -0.24280000
H        0.40370000      -0.29710000       2.09940000
H        0.91170000      -1.64570000       1.06800000
H       -1.67960000      -1.32620000       0.57530000
H       -2.16940000       0.19560000      -0.26060000
H        0.98070000      -1.08200000      -3.04630000
