20
Properties=species:S:1:pos:R:3 gdb_83754=T pbc="F F F"
C       -0.05640000       1.48160000       0.00540000
C        0.08700000      -0.01040000       0.07540000
C        0.77990000      -0.81380000      -0.96760000
C        1.53490000      -2.08920000      -0.61600000
C        0.44000000      -2.97140000       0.03520000
C       -0.67660000      -1.97390000       0.32080000
C       -0.22970000      -0.84770000       1.29750000
O        0.84510000      -1.05760000       2.19210000
N       -0.68960000      -0.97000000      -0.82910000
H        0.76400000       1.97310000       0.54070000
H       -0.04050000       1.82770000      -1.03220000
H       -0.99960000       1.80960000       0.45630000
H        1.07560000      -0.26160000      -1.85520000
H        1.95120000      -2.55110000      -1.51570000
H        2.35780000      -1.89060000       0.07410000
H        0.08770000      -3.74130000      -0.65800000
H        0.78640000      -3.46410000       0.94730000
H       -1.65790000      -2.41380000       0.50180000
H       -1.09700000      -0.42410000       1.82100000
H        0.49880000      -1.43700000       3.00570000
