18
Properties=species:S:1:pos:R:3 gdb_64516=T pbc="F F F"
C       -0.04230000       1.57740000      -0.22280000
C        0.02230000       0.04740000      -0.11580000
C       -1.39590000      -0.47700000      -0.07140000
O       -1.92770000      -0.96710000       0.89260000
C        0.98480000      -0.54670000      -1.16320000
C        2.12580000      -0.45940000      -0.22220000
C        1.05320000      -0.45780000       0.93750000
C        1.04790000      -1.98310000       0.74060000
N        1.62870000      -1.79830000      -0.63510000
H        0.96570000       1.99700000      -0.29260000
H       -0.59840000       1.89120000      -1.11330000
H       -0.53810000       2.00870000       0.65270000
H       -1.95530000      -0.34560000      -1.02940000
H        0.96530000      -0.42710000      -2.23910000
H        3.14730000      -0.12000000      -0.32740000
H        1.11890000       0.01780000       1.91360000
H        1.79730000      -2.49150000       1.35200000
H        0.09680000      -2.51760000       0.79170000
