18
Properties=species:S:1:pos:R:3 gdb_71351=T pbc="F F F"
O       -0.05950000       1.38560000       0.06090000
C        0.05690000       0.00910000       0.05190000
C        0.75670000      -0.94680000       1.01390000
N        0.08360000      -1.92020000       0.05180000
C       -1.14530000      -0.96740000      -0.06030000
C       -1.08490000      -1.02340000      -1.57470000
C       -1.81240000      -1.84480000      -2.58310000
C       -1.85160000      -0.32360000      -2.64410000
C        0.36760000      -0.97100000      -1.14330000
H        0.82100000       1.77060000      -0.01320000
H        1.85040000      -1.00330000       0.99400000
H        0.38070000      -1.01560000       2.03960000
H       -1.98790000      -1.07110000       0.62510000
H       -1.23320000      -2.37020000      -3.33550000
H       -2.71230000      -2.36510000      -2.27170000
H       -2.77650000       0.17520000      -2.37370000
H       -1.29900000       0.16890000      -3.43780000
H        1.28770000      -1.07170000      -1.72230000
