8
Properties=species:S:1:pos:R:3 gdb_3924=T pbc="F F F"
O       -0.08080000      -0.01330000      -0.00050000
C        0.00490000       1.18480000       0.00690000
C        1.29770000       1.91830000      -0.00140000
N        2.49230000       1.38690000      -0.01730000
O        3.33010000       2.42410000      -0.01840000
N        2.57710000       3.62510000      -0.00330000
N        1.36960000       3.30050000       0.00690000
H       -0.87280000       1.85930000       0.02040000
