20
Properties=species:S:1:pos:R:3 gdb_107880=T pbc="F F F"
C       -0.04270000       1.58140000      -0.03690000
C       -0.04910000       0.04990000       0.05130000
C        0.69520000      -0.47030000       1.25690000
C        0.45450000      -0.21780000       2.74690000
N        1.65950000      -1.14830000       2.82830000
C        1.10330000      -1.94170000       1.61460000
C        2.46010000      -1.86460000       0.92410000
O        2.42730000      -2.00710000      -0.47430000
C        2.23850000      -0.47930000       1.55320000
H        0.97880000       1.96930000      -0.11450000
H       -0.59780000       1.92750000      -0.91380000
H       -0.50240000       2.03470000       0.84800000
H       -1.08590000      -0.31050000       0.09530000
H        0.39690000      -0.38490000      -0.84870000
H        0.65320000       0.78280000       3.14640000
H       -0.44950000      -0.63760000       3.20310000
H        0.44570000      -2.79950000       1.76880000
H        3.25210000      -2.46290000       1.39400000
H        3.30890000      -1.83070000      -0.81700000
H        2.91140000       0.37690000       1.64170000
