14
Properties=species:S:1:pos:R:3 gdb_52016=T pbc="F F F"
O       -0.27750000      -0.04760000      -0.39320000
C        0.16990000       1.00260000      -0.02250000
C        1.33010000       1.71350000      -0.70960000
N        1.23800000       3.15460000      -0.49240000
C        2.43870000       3.90170000      -0.83730000
C        2.81510000       3.82390000      -2.27370000
N        3.06200000       3.69260000      -3.39430000
C        2.28980000       5.31070000      -0.43240000
N        2.16420000       6.41070000      -0.10790000
H       -0.21780000       1.53660000       0.87290000
H        2.24740000       1.35280000      -0.22120000
H        1.37690000       1.39980000      -1.76170000
H        0.44020000       3.54710000      -0.98280000
H        3.27400000       3.47990000      -0.26190000
