16
Properties=species:S:1:pos:R:3 gdb_43864=T pbc="F F F"
O        0.06170000      -0.01320000       0.07210000
C       -0.02210000       1.18210000       0.02790000
C       -1.16450000       2.23310000      -0.02580000
C       -0.03300000       3.26960000      -0.02450000
C        0.08910000       4.56040000      -0.75040000
C        0.05940000       4.54610000       0.78820000
C       -1.08380000       5.02870000       1.50150000
C       -2.05550000       5.41340000       2.09810000
N        0.92560000       2.18650000       0.00110000
H       -1.76870000       2.19210000      -0.93360000
H       -1.80850000       2.24950000       0.85480000
H        1.03760000       4.80960000      -1.21450000
H       -0.78580000       4.94800000      -1.26030000
H        1.01810000       4.72580000       1.26850000
H       -2.90830000       5.76170000       2.62600000
H        1.93260000       2.16680000       0.06650000
