17
Properties=species:S:1:pos:R:3 gdb_127141=T pbc="F F F"
C       -0.10390000       1.42370000      -0.02370000
N        0.18940000       0.00170000      -0.04530000
C        0.05410000      -0.71870000       1.20760000
C        0.02200000      -0.69990000      -1.20260000
N       -0.11720000      -2.01350000      -1.22270000
O       -0.17300000      -2.28750000      -2.63090000
C       -0.08950000      -1.10530000      -3.23460000
N       -0.18530000      -1.08250000      -4.59070000
N        0.03230000      -0.08230000      -2.43680000
H        0.53160000       1.91210000       0.72230000
H        0.10270000       1.85030000      -1.00420000
H       -1.15460000       1.62910000       0.23460000
H       -0.99760000      -0.87350000       1.49240000
H        0.52930000      -1.69690000       1.11870000
H        0.54840000      -0.14890000       1.99980000
H        0.03170000      -1.94370000      -5.06670000
H        0.15850000      -0.24330000      -5.02900000
