17
Properties=species:S:1:pos:R:3 gdb_125153=T pbc="F F F"
C        0.22840000       1.51730000       0.15380000
C        0.08100000       0.04220000      -0.00790000
C       -0.10930000      -0.73530000      -1.11760000
O       -0.17880000      -2.01220000      -0.72990000
N       -0.02160000      -2.01540000       0.70210000
N        0.12290000      -0.82360000       1.06400000
C       -0.23860000      -0.42440000      -2.54190000
C        0.31920000      -1.37520000      -3.58830000
C       -1.16360000      -1.24530000      -3.42540000
H        1.19160000       1.77140000       0.60770000
H        0.16680000       2.02430000      -0.81220000
H       -0.55590000       1.92490000       0.79970000
H       -0.16990000       0.63470000      -2.76120000
H        0.79080000      -0.93060000      -4.45700000
H        0.79100000      -2.27970000      -3.22340000
H       -1.69400000      -2.06190000      -2.95030000
H       -1.72790000      -0.70990000      -4.18030000
