15
Properties=species:S:1:pos:R:3 gdb_56738=T pbc="F F F"
O        0.57770000       1.54620000      -0.18190000
C        0.14940000       0.21210000       0.00640000
C        0.41510000      -0.59900000      -1.19930000
N        0.68270000      -1.22610000      -2.13270000
C        0.76820000      -0.41680000       1.25090000
C        1.12600000      -1.87090000       1.32050000
N        2.17770000      -0.85920000       1.27050000
C        0.30730000       0.20380000       2.53780000
O       -0.70690000       0.84080000       2.64850000
H        1.53680000       1.55170000      -0.28510000
H       -0.93140000       0.27790000       0.16630000
H        1.03030000      -2.39120000       2.26940000
H        0.92780000      -2.47250000       0.43870000
H        2.57110000      -0.82290000       0.33090000
H        0.98180000      -0.01060000       3.39430000
