15
Properties=species:S:1:pos:R:3 gdb_129576=T pbc="F F F"
N       -0.27440000       1.46380000       0.07100000
C       -0.05230000       0.02370000      -0.03950000
C       -1.41320000      -0.68210000       0.16620000
O       -1.97040000      -0.30130000       1.39560000
C        0.59390000      -0.41940000      -1.31940000
N        0.77270000       0.32420000      -2.37300000
O        1.35710000      -0.49460000      -3.28010000
N        1.51460000      -1.75410000      -2.70950000
N        1.05820000      -1.70820000      -1.54060000
H        0.60060000       1.95820000       0.20910000
H       -0.67710000       1.82390000      -0.79030000
H        0.59320000      -0.28620000       0.78980000
H       -2.06980000      -0.43020000      -0.68570000
H       -1.27770000      -1.76750000       0.17370000
H       -1.83810000       0.65670000       1.44680000
