18
Properties=species:S:1:pos:R:3 gdb_127126=T pbc="F F F"
C       -0.04020000       1.40240000       0.10730000
N       -0.03940000      -0.01600000      -0.19930000
C        1.18980000      -0.73450000       0.07360000
C       -1.21690000      -0.71310000      -0.06810000
N       -1.25610000      -2.02850000       0.10100000
N       -2.62060000      -2.25840000       0.10570000
C       -3.28480000      -1.09810000      -0.03990000
N       -4.66060000      -1.00270000      -0.13640000
N       -2.43960000      -0.08960000      -0.14110000
H        0.78660000       1.88600000      -0.42310000
H       -0.98100000       1.84280000      -0.22090000
H        0.08120000       1.60400000       1.18500000
H        1.37030000      -0.87670000       1.15160000
H        1.14890000      -1.71990000      -0.39280000
H        2.03020000      -0.17330000      -0.34620000
H       -2.96830000      -3.20060000       0.12450000
H       -5.17400000      -1.60070000       0.49650000
H       -4.96320000      -0.04100000      -0.06220000
