14
Properties=species:S:1:pos:R:3 gdb_66085=T pbc="F F F"
O       -0.10340000       1.38930000      -0.31010000
C       -0.00970000       0.01420000      -0.04350000
C        0.28260000      -0.38170000       1.43480000
O       -1.06170000      -0.85920000       1.61680000
C       -1.41910000      -0.59630000       0.25260000
C       -2.57380000       0.39220000       0.12620000
O       -3.25300000       0.47990000      -0.85900000
C        0.79500000      -0.68050000      -1.05060000
N        1.46250000      -1.20580000      -1.83440000
H        0.77140000       1.73790000      -0.51730000
H        1.02780000      -1.17100000       1.57680000
H        0.51170000       0.48310000       2.06670000
H       -1.64750000      -1.50460000      -0.31420000
H       -2.73290000       1.00910000       1.03560000
