19
Properties=species:S:1:pos:R:3 gdb_32213=T pbc="F F F"
C       -0.11170000       1.59810000       0.00770000
C       -0.02700000       0.06080000      -0.01570000
C        0.71450000      -0.47430000      -1.21700000
C        0.03050000      -0.82710000      -2.37770000
N        0.62300000      -1.27920000      -3.48510000
C        1.94850000      -1.38330000      -3.41240000
N        2.71910000      -1.09520000      -2.36470000
C        2.11030000      -0.63950000      -1.26170000
C        2.99950000      -0.33520000      -0.08450000
H        0.88250000       2.05480000       0.02220000
H       -0.63390000       1.97280000      -0.87810000
H       -0.65400000       1.94240000       0.89350000
H        0.44800000      -0.29150000       0.90610000
H       -1.04290000      -0.35060000      -0.01540000
H       -1.05560000      -0.74370000      -2.41150000
H        2.45860000      -1.74680000      -4.30160000
H        2.89940000       0.70570000       0.24030000
H        2.74630000      -0.96410000       0.77690000
H        4.03760000      -0.52140000      -0.36130000
