24
Properties=species:S:1:pos:R:3 gdb_10219=T pbc="F F F"
C        0.25290000       2.12020000      -0.51920000
C       -0.01120000       0.62130000      -0.34570000
C        0.71370000      -0.27530000      -1.37290000
C        2.22800000      -0.36390000      -1.07960000
C        3.10860000      -0.73650000      -2.27790000
C        0.03510000      -1.64730000      -1.39060000
O        0.57100000      -2.46270000      -2.41200000
C       -0.02530000      -3.73520000      -2.46200000
H        1.31480000       2.36690000      -0.42160000
H       -0.07660000       2.46430000      -1.50590000
H       -0.28810000       2.70210000       0.23370000
H        0.27650000       0.31060000       0.66810000
H       -1.09300000       0.44950000      -0.41800000
H        0.57460000       0.16690000      -2.37000000
H        2.56830000       0.60130000      -0.68660000
H        2.38330000      -1.08650000      -0.26630000
H        4.16540000      -0.75690000      -1.99090000
H        2.83620000      -1.71340000      -2.67900000
H        3.00000000      -0.00170000      -3.08400000
H        0.16130000      -2.13850000      -0.40800000
H       -1.05070000      -1.52330000      -1.54790000
H        0.12450000      -4.29570000      -1.52520000
H       -1.10930000      -3.67060000      -2.64970000
H        0.44200000      -4.28650000      -3.28170000
