16
Properties=species:S:1:pos:R:3 gdb_51337=T pbc="F F F"
O       -0.12940000       0.13510000      -0.60960000
C       -0.03010000       1.20980000      -0.05570000
N        1.13830000       1.78210000       0.34290000
C        2.42120000       1.14830000       0.21160000
C        3.55870000       1.86600000      -0.52300000
C        4.18770000       2.76600000       0.54900000
O        3.40400000       2.64380000       1.74280000
C        3.35290000       1.21310000       1.45270000
C        4.58110000       1.33310000       0.48410000
H       -0.90270000       1.85050000       0.18040000
H        1.12180000       2.66130000       0.83800000
H        2.27600000       0.13260000      -0.15440000
H        3.67960000       2.03010000      -1.58540000
H        4.72140000       3.68730000       0.36070000
H        3.22060000       0.59380000       2.33650000
H        5.51570000       0.80450000       0.37380000
