25
Properties=species:S:1:pos:R:3 gdb_103942=T pbc="F F F"
C        0.14140000       1.45220000       0.29980000
C        0.01140000      -0.03610000      -0.04350000
C        0.65630000      -0.45510000      -1.36940000
C        0.02030000       0.23800000      -2.57630000
C        2.22400000      -0.38860000      -1.40740000
C        2.24260000      -1.84030000      -1.89890000
C        2.94110000      -2.34310000      -3.13000000
C        3.33850000      -2.85290000      -1.76200000
C        0.75210000      -2.00600000      -1.58160000
H        1.19010000       1.76970000       0.30140000
H       -0.39610000       2.08540000      -0.41230000
H       -0.26710000       1.65840000       1.29410000
H        0.46590000      -0.62710000       0.76230000
H       -1.05130000      -0.31620000      -0.06150000
H        0.15390000       1.32400000      -2.53830000
H        0.46990000      -0.11590000      -3.50990000
H       -1.05560000       0.03130000      -2.62500000
H        2.66120000       0.36230000      -2.07300000
H        2.66430000      -0.26810000      -0.41140000
H        2.40010000      -3.01610000      -3.78840000
H        3.62390000      -1.67210000      -3.64240000
H        4.28960000      -2.52700000      -1.35190000
H        3.06580000      -3.86990000      -1.49670000
H        0.56760000      -2.56990000      -0.66050000
H        0.12280000      -2.42200000      -2.37480000
