17
Properties=species:S:1:pos:R:3 gdb_55552=T pbc="F F F"
N        0.23620000       1.04450000       0.15940000
C       -0.64810000       0.01890000       0.41690000
O       -1.39110000       0.04940000       1.38430000
N       -0.54410000      -1.01910000      -0.48720000
C       -1.24180000      -2.22670000      -0.68520000
N       -0.93110000      -2.79880000      -1.78740000
C       -2.20240000      -2.83320000       0.28510000
C       -2.01030000      -2.87070000       1.76610000
N       -3.13970000      -2.14790000       1.18770000
H        0.05930000       1.87670000       0.69860000
H        0.59910000       1.19270000      -0.76810000
H        0.11210000      -0.90190000      -1.24750000
H       -1.43530000      -3.67630000      -1.89300000
H       -2.64360000      -3.71890000      -0.16590000
H       -2.24910000      -3.79290000       2.28900000
H       -1.20310000      -2.28290000       2.19030000
H       -2.90260000      -1.15690000       1.22880000
