19
Properties=species:S:1:pos:R:3 gdb_41725=T pbc="F F F"
C       -0.02810000       1.55290000       0.07620000
O        1.35540000       1.93760000      -0.04600000
C        2.12000000       0.74640000       0.08410000
C        2.11930000      -0.13480000      -1.19170000
C        0.59850000      -0.27000000      -1.46790000
C        0.02090000       0.02920000      -0.05040000
C        1.25210000      -0.27090000       0.85610000
C        1.93150000      -1.60500000       0.54530000
O        2.60650000      -1.38680000      -0.71110000
H       -0.42400000       1.88870000       1.04560000
H       -0.60530000       2.03280000      -0.72170000
H        3.10930000       0.98320000       0.47570000
H        2.73880000       0.18060000      -2.03060000
H        0.23200000       0.44090000      -2.21340000
H        0.38110000      -1.28060000      -1.82120000
H       -0.91000000      -0.48150000       0.19890000
H        1.09400000      -0.06990000       1.91650000
H        2.67670000      -1.87780000       1.30130000
H        1.21870000      -2.43640000       0.45530000
