21
Properties=species:S:1:pos:R:3 gdb_57654=T pbc="F F F"
C       -0.04420000       1.73690000      -0.00350000
C        0.09820000       0.20560000       0.04730000
C        0.88310000      -0.22320000       1.29860000
C       -1.31070000      -0.47220000       0.02320000
C       -2.15160000      -0.16320000       1.24110000
O       -2.95430000       0.73500000       1.30040000
C        0.79120000      -0.25040000      -1.23480000
C        2.22050000      -0.56080000      -1.36630000
O        1.24170000      -1.60390000      -1.30360000
H        0.94110000       2.21420000      -0.00430000
H       -0.57660000       2.05690000      -0.90550000
H       -0.60520000       2.11160000       0.85650000
H        0.33310000       0.02180000       2.21150000
H        1.07640000      -1.29950000       1.28850000
H        1.84270000       0.29890000       1.35670000
H       -1.85920000      -0.12530000      -0.85870000
H       -1.16900000      -1.55670000      -0.05020000
H       -1.98140000      -0.82520000       2.12040000
H        0.27650000       0.07930000      -2.14110000
H        2.70690000      -0.43660000      -2.33290000
H        2.88150000      -0.49360000      -0.50600000
