16
Properties=species:S:1:pos:R:3 gdb_30179=T pbc="F F F"
C       -0.55370000       1.48780000      -0.02860000
C        0.23490000       0.20560000       0.01080000
O        1.16300000       0.14510000      -1.11980000
C        2.21280000      -0.51290000      -0.54570000
C        2.15390000      -0.54100000       0.80630000
O        1.00080000       0.10940000       1.22320000
C        3.38650000      -1.02490000       1.30150000
C        4.15470000      -1.27920000       0.17480000
N        3.43370000      -0.93100000      -0.96690000
H        0.12340000       2.34280000       0.03050000
H       -1.12890000       1.54470000      -0.95610000
H       -1.24480000       1.51850000       0.81760000
H       -0.40270000      -0.69130000      -0.06250000
H        3.69150000      -1.18810000       2.32230000
H        5.11580000      -1.75650000       0.08180000
H        3.72210000      -1.10270000      -1.91370000
