16
Properties=species:S:1:pos:R:3 gdb_51914=T pbc="F F F"
O        1.27660000       0.50150000       0.97520000
C        0.61580000       1.19260000       0.24600000
C        1.20140000       2.06090000      -0.86140000
N        0.31750000       3.16310000      -1.16400000
C        0.80060000       4.32400000      -1.12820000
O        0.01530000       5.39150000      -1.37930000
C        0.66210000       6.66810000      -1.32240000
C        1.57810000       6.90030000      -2.43440000
C        2.33720000       7.08210000      -3.34730000
H       -0.49290000       1.24040000       0.31400000
H        2.22750000       2.34540000      -0.58070000
H        1.27560000       1.41010000      -1.74710000
H        1.84910000       4.56630000      -0.90150000
H       -0.15350000       7.39560000      -1.33870000
H        1.18830000       6.78330000      -0.36510000
H        3.00440000       7.24780000      -4.15740000
