21
Properties=species:S:1:pos:R:3 gdb_110318=T pbc="F F F"
C        0.06500000       1.37830000      -0.34280000
C       -0.00450000      -0.00630000       0.31140000
C       -1.36830000      -0.65290000       0.14890000
C       -1.94270000      -1.25830000      -1.12430000
C       -0.92440000      -2.08030000      -1.90110000
O        0.11990000      -1.32410000      -2.48290000
C       -0.62870000      -2.93870000      -0.61840000
C       -1.69270000      -2.11640000       0.12050000
O       -2.66230000      -2.68990000       0.92860000
H        1.03830000       1.84880000      -0.17000000
H       -0.08410000       1.29170000      -1.42270000
H       -0.70490000       2.04900000       0.05560000
H        0.77170000      -0.63930000      -0.12400000
H        0.21740000       0.07800000       1.38420000
H       -2.16060000      -0.11190000       0.66790000
H       -2.88100000      -0.90160000      -1.53140000
H       -1.42200000      -2.69530000      -2.66250000
H        0.70340000      -1.92870000      -2.95250000
H       -0.93330000      -3.98070000      -0.74000000
H        0.39390000      -2.90190000      -0.22970000
H       -2.35860000      -2.64510000       1.84150000
