18
Properties=species:S:1:pos:R:3 gdb_22450=T pbc="F F F"
C        0.01080000       1.58910000      -0.03440000
C       -0.06960000       0.06060000      -0.03150000
C        0.73760000      -0.55710000      -1.17710000
O        2.11420000      -0.18380000      -1.13360000
C        0.63210000      -2.07630000      -1.26980000
N        0.08450000      -2.70370000      -0.29040000
O        0.08420000      -4.07840000      -0.46440000
C        1.18540000      -2.70480000      -2.42210000
C        1.64610000      -3.19070000      -3.42230000
H        1.05030000       1.92340000       0.01550000
H       -0.42790000       2.00700000      -0.94750000
H       -0.52970000       2.01050000       0.81810000
H        0.29920000      -0.34080000       0.91990000
H       -1.11000000      -0.27110000      -0.11310000
H        0.38230000      -0.14640000      -2.13030000
H        2.48990000      -0.56540000      -0.33140000
H       -0.36390000      -4.38900000       0.33070000
H        2.05750000      -3.62930000      -4.29790000
