16
Properties=species:S:1:pos:R:3 gdb_27689=T pbc="F F F"
C       -0.02720000       1.49070000       0.08530000
C        0.01130000       0.00330000      -0.03680000
C       -0.00840000      -0.79900000      -1.16460000
C        0.05020000      -2.15270000      -0.74480000
N        0.12320000      -3.27300000      -1.56010000
C        0.10040000      -2.14300000       0.64890000
N        0.08100000      -0.80770000       1.05190000
C        0.15050000      -3.21980000       1.54410000
N        0.18460000      -4.12930000       2.26790000
H        0.86950000       1.88160000       0.58050000
H       -0.08610000       1.94600000      -0.90520000
H       -0.89570000       1.83010000       0.66220000
H       -0.04910000      -0.44650000      -2.18410000
H       -0.37140000      -3.18350000      -2.43590000
H       -0.10700000      -4.14130000      -1.09640000
H        0.10640000      -0.50630000       2.01040000
