21
Properties=species:S:1:pos:R:3 gdb_119125=T pbc="F F F"
C       -0.36790000       1.43140000      -0.31900000
O       -0.47700000       0.02880000      -0.39220000
C        0.69880000      -0.58700000      -0.88580000
C        0.50150000      -2.08200000      -0.93950000
C       -0.30110000      -2.63980000      -2.10820000
C        1.17370000      -2.83870000      -2.08500000
C        0.38520000      -2.86790000       0.34210000
C        0.55140000      -2.12590000       1.65330000
O        0.17260000      -4.06300000       0.31520000
H        0.44560000       1.74530000       0.35430000
H       -0.18240000       1.87680000      -1.30920000
H       -1.31510000       1.81360000       0.06840000
H        0.92340000      -0.20980000      -1.89720000
H        1.56000000      -0.32070000      -0.24980000
H       -0.92370000      -3.49640000      -1.88090000
H       -0.72440000      -1.91430000      -2.79350000
H        1.79540000      -2.26130000      -2.76060000
H        1.54150000      -3.82730000      -1.83800000
H       -0.12570000      -1.26840000       1.68940000
H        0.35940000      -2.80950000       2.48050000
H        1.57240000      -1.73430000       1.73900000
