11
Properties=species:S:1:pos:R:3 gdb_21696=T pbc="F F F"
N        0.05420000       1.36420000       0.13890000
C        0.03560000      -0.00440000       0.02490000
N       -1.07310000      -0.70240000      -0.01680000
O       -0.65950000      -2.02470000      -0.04550000
N        0.67550000      -2.13630000      -0.03620000
C        1.15020000      -0.91240000       0.01140000
C        2.59330000      -0.60420000       0.06130000
O        3.47640000      -1.42080000       0.00680000
H        0.81250000       1.83690000      -0.32890000
H       -0.84090000       1.80210000      -0.02900000
H        2.81400000       0.48130000       0.16310000
