17
Properties=species:S:1:pos:R:3 gdb_68987=T pbc="F F F"
O       -0.25500000       1.38050000       0.15460000
C       -0.08810000       0.02030000       0.00220000
C       -0.39670000      -0.97940000       1.09340000
C       -1.16780000      -1.02170000      -0.21040000
C       -2.66690000      -0.88820000      -0.30710000
C       -3.36590000      -2.11800000       0.07510000
N       -3.89620000      -3.09830000       0.38010000
N       -0.40260000      -1.64430000      -1.29450000
C        0.70630000      -0.64880000      -1.12110000
H        0.34430000       1.69150000       0.84170000
H        0.29760000      -1.77650000       1.35100000
H       -0.94160000      -0.55620000       1.93250000
H       -3.00740000      -0.07180000       0.33950000
H       -2.94310000      -0.63090000      -1.33530000
H       -0.12480000      -2.60260000      -1.09450000
H        0.81020000      -0.01720000      -2.00860000
H        1.68490000      -1.06360000      -0.85160000
