20
Properties=species:S:1:pos:R:3 gdb_114771=T pbc="F F F"
O       -0.10330000       1.49110000      -0.06670000
C        0.02040000       0.07630000      -0.07910000
C       -1.38220000      -0.51980000       0.03660000
C       -1.32890000      -2.04710000      -0.12960000
N       -2.62970000      -2.69960000       0.10690000
C       -2.75720000      -3.47840000       1.34030000
C       -3.43510000      -2.15600000       1.20590000
C       -2.95580000      -0.93990000       1.90630000
C       -2.03200000      -0.15700000       1.35100000
H        0.77950000       1.87160000      -0.05120000
H        0.49440000      -0.27320000      -1.01030000
H        0.64040000      -0.27570000       0.76160000
H       -1.97320000      -0.08890000      -0.78470000
H       -1.00980000      -2.30450000      -1.14670000
H       -0.56310000      -2.43990000       0.55580000
H       -3.32730000      -4.40100000       1.26190000
H       -1.89160000      -3.52710000       1.99900000
H       -4.50680000      -2.16910000       1.00230000
H       -3.43090000      -0.67650000       2.84800000
H       -1.71550000       0.76880000       1.82060000
