18
Properties=species:S:1:pos:R:3 gdb_41794=T pbc="F F F"
C       -0.04630000       1.58190000      -0.12390000
C        1.43000000       2.00210000      -0.28400000
C        2.20050000       0.71530000       0.05050000
O        1.36650000      -0.33220000      -0.31890000
C        0.02140000       0.03940000       0.02940000
C       -0.28060000      -0.44810000       1.44550000
N        0.51890000       0.08600000       2.52830000
C        1.70540000       0.50700000       2.45290000
O        2.59240000       0.67610000       1.43270000
H       -0.50470000       2.03810000       0.75620000
H       -0.64150000       1.86500000      -0.99390000
H        1.65060000       2.28080000      -1.31750000
H        1.73050000       2.82860000       0.36130000
H        3.14680000       0.60520000      -0.48080000
H       -0.63710000      -0.47940000      -0.67370000
H       -1.33560000      -0.24430000       1.67100000
H       -0.16880000      -1.54080000       1.46150000
H        2.21400000       0.79330000       3.37420000
