17
Properties=species:S:1:pos:R:3 gdb_47648=T pbc="F F F"
N       -0.03300000       1.32810000      -0.13960000
C       -0.01300000       0.07140000      -0.01470000
C       -1.30030000      -0.72900000       0.04080000
O       -1.24040000      -1.71610000       1.07080000
C       -1.02640000      -1.19620000       2.32490000
N        0.07270000      -1.20650000       2.93820000
C        1.25330000      -1.74710000       2.26330000
C        1.85620000      -0.77210000       1.24710000
O        1.10750000      -0.71760000       0.02420000
H        0.91800000       1.69930000      -0.20430000
H       -2.14220000      -0.04190000       0.17930000
H       -1.43860000      -1.28570000      -0.89030000
H       -1.91680000      -0.77360000       2.79650000
H        2.01210000      -1.94180000       3.02850000
H        1.03460000      -2.68820000       1.74580000
H        1.94380000       0.23150000       1.68130000
H        2.85200000      -1.11820000       0.95880000
