27
Properties=species:S:1:pos:R:3 gdb_59984=T pbc="F F F"
C       -0.23140000       1.71720000      -1.00590000
C        0.01620000       0.28640000      -0.52460000
O       -1.17780000      -0.27780000       0.01880000
C        0.49650000      -0.62850000      -1.65290000
C        0.82910000      -2.08110000      -1.22640000
C       -0.41990000      -2.96720000      -1.36600000
C        2.05580000      -2.63180000      -2.00450000
C        3.35330000      -1.91540000      -1.59410000
C        2.24790000      -4.14700000      -1.83480000
H        0.68460000       2.16610000      -1.40370000
H       -0.99580000       1.72930000      -1.78950000
H       -0.57970000       2.35110000      -0.18180000
H        0.79910000       0.30550000       0.25360000
H       -1.46860000       0.28270000       0.74490000
H       -0.27190000      -0.64560000      -2.43710000
H        1.37430000      -0.14800000      -2.09670000
H        1.10710000      -2.06570000      -0.16170000
H       -0.67530000      -3.11550000      -2.42310000
H       -0.27750000      -3.95330000      -0.91600000
H       -1.27000000      -2.48890000      -0.87690000
H        1.88010000      -2.43680000      -3.07370000
H        3.29230000      -0.82890000      -1.70330000
H        3.59280000      -2.12830000      -0.54500000
H        4.19830000      -2.25790000      -2.20060000
H        1.41410000      -4.72040000      -2.24640000
H        3.15960000      -4.47660000      -2.34420000
H        2.34890000      -4.41410000      -0.77550000
