18
Properties=species:S:1:pos:R:3 gdb_14763=T pbc="F F F"
O       -0.09980000       1.45140000       0.00740000
C        0.01940000       0.03860000      -0.01820000
C       -1.38870000      -0.54280000      -0.00830000
C       -1.39770000      -2.06920000      -0.00070000
N       -2.76700000      -2.57730000      -0.03650000
C       -2.82490000      -4.03150000       0.02830000
C       -4.21090000      -4.50760000       0.04140000
N       -5.30180000      -4.88520000       0.07580000
H        0.78400000       1.82970000      -0.00900000
H        0.55610000      -0.30180000      -0.91910000
H        0.58350000      -0.33060000       0.85440000
H       -1.91210000      -0.16060000       0.87750000
H       -1.93670000      -0.17820000      -0.88310000
H       -0.87810000      -2.44980000      -0.89090000
H       -0.83090000      -2.44470000       0.87340000
H       -3.30050000      -2.18370000       0.73250000
H       -2.32770000      -4.44420000      -0.85890000
H       -2.30820000      -4.46800000       0.90390000
