17
Properties=species:S:1:pos:R:3 gdb_92880=T pbc="F F F"
O        0.17060000       1.47330000      -0.20610000
C        0.04470000       0.07060000       0.01790000
C       -1.40780000      -0.34830000       0.28020000
C       -2.37870000      -0.11090000      -0.84280000
C       -2.21630000      -0.35170000      -2.14910000
C       -1.06800000      -0.97030000      -2.85430000
O       -1.22530000      -1.33810000      -4.00990000
C        0.27560000      -1.13650000      -2.24350000
C        0.75430000      -0.69970000      -1.07300000
H       -0.24290000       1.66540000      -1.05600000
H        0.59330000      -0.09930000       0.95060000
H       -1.42100000      -1.41290000       0.55560000
H       -1.74890000       0.20110000       1.16320000
H       -3.34600000       0.28330000      -0.53780000
H       -3.04240000      -0.15780000      -2.82790000
H        0.95410000      -1.63370000      -2.93200000
H        1.81510000      -0.85520000      -0.88730000
