16
Properties=species:S:1:pos:R:3 gdb_18046=T pbc="F F F"
C        0.04250000       1.56610000       0.18180000
N        1.49390000       1.51640000      -0.10790000
C        1.35600000       0.16450000      -0.70650000
C        2.42130000      -0.84920000      -0.31730000
N        2.32370000      -1.34260000       1.04970000
C        1.23480000      -1.20480000       1.66940000
O        0.06090000      -0.63850000       1.28160000
C       -0.00410000       0.03040000       0.02380000
H       -0.21870000       1.95360000       1.17120000
H       -0.56760000       2.07030000      -0.58110000
H        1.84690000       2.23550000      -0.72920000
H        1.20910000       0.17720000      -1.79660000
H        2.37060000      -1.71320000      -0.99490000
H        3.41600000      -0.40880000      -0.45480000
H        1.12240000      -1.58320000       2.68380000
H       -0.84250000      -0.39870000      -0.52610000
