18
Properties=species:S:1:pos:R:3 gdb_125547=T pbc="F F F"
C       -0.03690000       1.40770000      -0.04190000
C        0.00840000      -0.08230000       0.01100000
N       -0.03180000      -0.83330000      -1.09110000
N        0.05520000      -2.07680000      -0.57070000
C       -0.01280000      -3.39960000      -1.15810000
C        0.39100000      -4.28250000       0.05960000
C        0.14750000      -3.41590000       1.33700000
C        0.12280000      -2.03270000       0.76840000
N        0.10120000      -0.78270000       1.18920000
H        0.87370000       1.83960000       0.38590000
H       -0.13620000       1.74420000      -1.07530000
H       -0.88070000       1.79010000       0.54100000
H       -1.02760000      -3.60950000      -1.51560000
H        0.67370000      -3.49570000      -2.00260000
H       -0.16530000      -5.22100000       0.07940000
H        1.45290000      -4.53050000      -0.01410000
H       -0.80990000      -3.65330000       1.81490000
H        0.92640000      -3.55550000       2.09010000
