20
Properties=species:S:1:pos:R:3 gdb_14728=T pbc="F F F"
C       -0.03160000       1.56010000       0.27590000
C       -0.02800000       0.05430000      -0.00030000
C       -1.43090000      -0.55960000       0.01590000
C       -1.41960000      -2.07590000      -0.26310000
C       -2.74680000      -2.67970000      -0.24720000
C       -3.85320000      -3.15350000      -0.22100000
C       -5.18960000      -3.73310000      -0.21660000
O       -5.52010000      -4.17320000       1.09680000
H        0.98230000       1.97170000       0.25860000
H       -0.62270000       2.09840000      -0.47340000
H       -0.46450000       1.78100000       1.25780000
H        0.44190000      -0.13930000      -0.97400000
H        0.59880000      -0.45410000       0.74450000
H       -1.90610000      -0.38090000       0.98780000
H       -2.06360000      -0.06460000      -0.73090000
H       -0.94480000      -2.26390000      -1.23590000
H       -0.78510000      -2.57790000       0.48000000
H       -5.91130000      -2.98030000      -0.57480000
H       -5.22300000      -4.56940000      -0.93440000
H       -6.40560000      -4.54890000       1.05710000
