13
Properties=species:S:1:pos:R:3 gdb_127289=T pbc="F F F"
C        0.02170000       1.39250000       0.07630000
N        0.02700000      -0.05260000      -0.02970000
C       -0.18020000      -0.78600000      -1.14790000
C       -0.07230000      -2.10050000      -0.71860000
N       -0.11420000      -3.42950000      -1.04830000
N        0.09250000      -4.14510000      -0.06150000
O        0.32100000      -3.22520000       1.17940000
C        0.19720000      -2.02230000       0.65840000
N        0.26470000      -0.78010000       1.11290000
H        0.99210000       1.74070000       0.43800000
H       -0.17820000       1.81960000      -0.90720000
H       -0.75270000       1.70940000       0.77900000
H       -0.37560000      -0.32700000      -2.10230000
