11
Properties=species:S:1:pos:R:3 gdb_21783=T pbc="F F F"
O       -0.85310000       1.10020000       0.25440000
C        0.25520000       0.81040000      -0.11840000
C        1.41130000       1.75940000      -0.06200000
C        1.28090000       3.06120000       0.43240000
N        2.31710000       3.89370000       0.47650000
N        3.49610000       3.45770000       0.03510000
C        3.57680000       2.20910000      -0.42840000
N        2.58420000       1.31770000      -0.50400000
H        0.51780000      -0.18270000      -0.53480000
H        0.32930000       3.43310000       0.79580000
H        4.55740000       1.89900000      -0.77680000
