21
Properties=species:S:1:pos:R:3 gdb_80717=T pbc="F F F"
C        0.33940000       1.68210000      -0.63550000
C        0.40800000       0.19040000      -0.37290000
C        1.63920000      -0.66490000      -0.46370000
C        2.86630000       0.03330000       0.14380000
C        2.13760000       0.06620000       1.52780000
C        2.04220000       1.36670000       2.34530000
C        3.34200000       1.80900000       2.83790000
C        4.42940000       2.14560000       3.22540000
C        0.88230000      -0.52430000       0.87100000
H        1.27200000       2.19960000      -0.40170000
H        0.12830000       1.86650000      -1.69490000
H       -0.46040000       2.15330000      -0.05340000
H       -0.45690000      -0.33200000      -0.78080000
H        1.69030000      -1.52730000      -1.11780000
H        3.76150000      -0.59040000       0.15780000
H        3.13550000       1.00080000      -0.29140000
H        2.58930000      -0.69450000       2.17140000
H        1.58720000       2.16540000       1.75080000
H        1.36570000       1.20040000       3.19460000
H        5.38280000       2.45500000       3.57500000
H        0.24000000      -1.25050000       1.35800000
