20
Properties=species:S:1:pos:R:3 gdb_115545=T pbc="F F F"
C        0.16600000       1.51450000       0.09770000
N       -0.16050000       0.11760000      -0.17460000
C        0.64770000      -0.47660000      -1.20980000
C        2.03820000      -1.06360000      -0.81100000
N        1.40800000      -2.40200000      -0.71870000
C        0.25110000      -1.97070000      -1.54620000
C       -1.10700000      -2.50350000      -1.10220000
C        0.45660000      -2.23840000      -2.98100000
N        0.65010000      -2.46620000      -4.09880000
H        1.21840000       1.69310000       0.37690000
H       -0.05000000       2.11730000      -0.79100000
H       -0.46730000       1.88010000       0.91060000
H       -0.07830000      -0.42530000       0.67900000
H        0.65300000       0.19220000      -2.07220000
H        2.78560000      -0.96200000      -1.60840000
H        2.46830000      -0.70820000       0.13160000
H        1.94560000      -3.18070000      -1.08560000
H       -1.26720000      -2.28660000      -0.04570000
H       -1.91160000      -2.04280000      -1.68130000
H       -1.15030000      -3.58700000      -1.24760000
