19
Properties=species:S:1:pos:R:3 gdb_127142=T pbc="F F F"
C        0.83540000      -0.01100000      -0.77830000
N       -0.13950000       0.13720000       0.29490000
C       -0.14400000       1.46840000       0.88980000
C       -1.38610000      -0.44360000       0.11820000
N       -2.48280000       0.23120000       0.41090000
O       -3.53920000      -0.66410000       0.23040000
C       -3.03720000      -1.83410000      -0.18140000
C       -1.68570000      -1.79740000      -0.28300000
C       -0.77170000      -2.92870000      -0.63680000
H        1.82580000       0.25560000      -0.39730000
H        0.87640000      -1.04190000      -1.12790000
H        0.61470000       0.63860000      -1.64130000
H       -0.52230000       2.23980000       0.20180000
H       -0.78010000       1.47060000       1.77580000
H        0.88010000       1.72490000       1.17600000
H       -3.75510000      -2.62340000      -0.35030000
H       -1.31610000      -3.87700000      -0.62220000
H       -0.33370000      -2.82230000      -1.63610000
H        0.05520000      -3.00920000       0.07680000
