20
Properties=species:S:1:pos:R:3 gdb_47558=T pbc="F F F"
O        0.02530000      -0.11290000       0.03360000
C        0.03220000       1.09600000       0.03660000
C       -1.25530000       1.91310000       0.01970000
C       -1.43330000       2.85990000      -1.18850000
C       -0.31440000       3.88990000      -1.38390000
N        0.82840000       3.30110000      -2.08330000
C        2.17260000       3.69920000      -1.67950000
C        1.66640000       2.33040000      -1.37740000
C        1.34160000       1.88740000       0.04230000
H       -2.08820000       1.20720000       0.06960000
H       -1.27240000       2.51600000       0.93920000
H       -1.52800000       2.27600000      -2.11080000
H       -2.38140000       3.39100000      -1.05160000
H       -0.67810000       4.71010000      -2.01280000
H       -0.04460000       4.33940000      -0.41240000
H        2.88470000       3.86750000      -2.48320000
H        2.27000000       4.38380000      -0.83680000
H        1.98780000       1.50850000      -2.01490000
H        1.26030000       2.75010000       0.71000000
H        2.13600000       1.23440000       0.41260000
