20
Properties=species:S:1:pos:R:3 gdb_88188=T pbc="F F F"
C       -0.15620000       1.44910000      -0.12790000
N        0.06120000       0.01490000       0.01030000
C        1.41180000      -0.49240000      -0.17630000
C        0.77840000      -0.50810000       1.18330000
C        1.30040000       0.41230000       2.27920000
O        2.09190000      -0.31790000       3.20110000
C        1.35850000      -1.30550000       3.90170000
C        0.46580000      -2.12230000       3.00910000
C        0.22430000      -1.76470000       1.74920000
H        0.70380000       2.07630000       0.15290000
H       -0.39500000       1.66240000      -1.17490000
H       -1.01580000       1.74860000       0.48010000
H        1.50520000      -1.40710000      -0.75650000
H        2.21630000       0.22760000      -0.33010000
H        1.94650000       1.20070000       1.88850000
H        0.45000000       0.88870000       2.79650000
H        2.10490000      -1.94360000       4.38940000
H        0.76060000      -0.84270000       4.70970000
H        0.02330000      -3.01650000       3.43940000
H       -0.40880000      -2.35460000       1.09320000
