16
Properties=species:S:1:pos:R:3 gdb_45889=T pbc="F F F"
O       -0.08650000      -0.11010000       0.15400000
C       -0.01930000       1.09610000       0.09490000
N       -1.16970000       1.87170000      -0.12860000
C       -1.44150000       3.21050000       0.14650000
N       -0.83310000       4.03650000       0.89490000
C        0.30860000       3.56240000       1.67170000
C        1.42530000       3.03940000       0.79750000
C        2.15330000       1.77120000       1.13920000
N        1.17020000       1.80950000       0.07570000
H       -1.95060000       1.30700000      -0.43350000
H       -2.34590000       3.54750000      -0.36250000
H        0.67100000       4.38950000       2.28940000
H       -0.01060000       2.75960000       2.35560000
H        1.94800000       3.79410000       0.21350000
H        3.18290000       1.62940000       0.82440000
H        1.87460000       1.25620000       2.05520000
