18
Properties=species:S:1:pos:R:3 gdb_38636=T pbc="F F F"
C       -0.00960000       1.54000000       0.07580000
N        1.50750000       1.38360000      -0.03850000
C        1.82680000       0.75030000       1.27840000
C        0.97500000      -0.51200000       1.14240000
C        1.50710000      -1.24950000      -0.09260000
O        0.40610000      -2.08580000      -0.53290000
C       -0.77860000      -1.23980000      -0.39560000
C       -0.06950000       0.01520000       0.04700000
C        1.22610000       0.07740000      -0.81560000
H       -0.35140000       2.09130000       0.95710000
H       -0.39580000       2.00770000      -0.83310000
H        2.90090000       0.55300000       1.35040000
H        1.53590000       1.40500000       2.10430000
H        0.64690000      -1.06850000       2.01970000
H        2.42150000      -1.84170000      -0.13500000
H       -1.28420000      -1.15700000      -1.36360000
H       -1.46270000      -1.68490000       0.33520000
H        1.22160000       0.18430000      -1.89850000
