19
Properties=species:S:1:pos:R:3 gdb_58368=T pbc="F F F"
C        0.01920000       1.55510000       0.03540000
C        0.01520000       0.02000000       0.02130000
C        0.78060000      -0.52670000       1.23470000
C       -1.43340000      -0.55250000      -0.01680000
C       -2.24550000      -0.06410000      -1.24860000
C       -3.63700000      -0.50850000      -1.22760000
N       -4.74240000      -0.84180000      -1.19690000
C       -1.40880000      -2.01960000      -0.00040000
N       -1.36540000      -3.17420000      -0.00710000
H        1.04380000       1.92080000       0.14850000
H       -0.37730000       1.99370000      -0.88430000
H       -0.56410000       1.94400000       0.87850000
H        0.52260000      -0.32420000      -0.88960000
H        1.80910000      -0.15470000       1.23010000
H        0.31320000      -0.20050000       2.17110000
H        0.81540000      -1.61880000       1.23580000
H       -1.95810000      -0.22220000       0.88880000
H       -2.23990000       1.02830000      -1.27520000
H       -1.77000000      -0.41650000      -2.17010000
