19
Properties=species:S:1:pos:R:3 gdb_62869=T pbc="F F F"
C       -0.02010000       1.57940000       0.01400000
C       -0.07770000       0.05610000      -0.02790000
O       -1.38750000      -0.26650000      -0.34390000
C        1.14800000      -0.60560000      -0.78340000
N        1.93990000      -0.22480000       0.44440000
C        0.68500000      -0.64190000       1.17300000
C        0.63600000      -2.16020000       0.86090000
N       -0.36610000      -2.60830000      -0.14560000
C        0.97700000      -2.13350000      -0.58000000
H        0.97310000       1.95140000       0.25600000
H       -0.33290000       1.97050000      -0.95910000
H       -0.73910000       1.93860000       0.75690000
H       -1.42370000      -1.24230000      -0.37060000
H        1.51160000      -0.25490000      -1.75000000
H        2.70400000      -0.88070000       0.61310000
H        0.57390000      -0.32850000       2.21170000
H        1.02550000      -2.88540000       1.56660000
H       -0.39210000      -3.62570000      -0.17060000
H        1.64740000      -2.83660000      -1.06140000
