11
Properties=species:S:1:pos:R:3 gdb_133615=T pbc="F F F"
F       -0.00470000       0.07470000      -0.10050000
C       -0.03350000       1.40630000      -0.01030000
F        1.21980000       1.85670000      -0.10270000
F       -0.72470000       1.87990000      -1.05390000
C       -0.69850000       1.86480000       1.29010000
C       -0.00840000       1.39200000       2.47530000
C        0.55950000       1.00290000       3.46560000
C        1.20140000       0.56330000       4.58820000
N        1.74510000       0.19090000       5.54430000
H       -0.73100000       2.95960000       1.27420000
H       -1.73210000       1.50270000       1.27600000
