18
Properties=species:S:1:pos:R:3 gdb_117439=T pbc="F F F"
O       -0.34550000       1.46310000       0.01390000
C       -0.02850000       0.07740000       0.00350000
C       -1.35280000      -0.67270000       0.01120000
C       -1.20020000      -2.16950000       0.00160000
N       -0.06550000      -2.73520000      -0.01260000
O       -2.43560000      -2.74890000       0.01050000
C       -2.49170000      -4.17490000       0.00310000
C       -3.88320000      -4.59600000       0.01440000
C       -5.02090000      -4.97790000       0.02360000
H        0.48010000       1.95520000       0.00950000
H        0.55140000      -0.20210000      -0.88670000
H        0.56720000      -0.21170000       0.88020000
H       -1.93850000      -0.38360000       0.89160000
H       -1.95400000      -0.37400000      -0.85540000
H       -0.11000000      -3.75200000      -0.01780000
H       -1.98470000      -4.56610000      -0.89060000
H       -1.96730000      -4.57600000       0.88220000
H       -6.02980000      -5.31000000       0.03230000
