17
Properties=species:S:1:pos:R:3 gdb_95738=T pbc="F F F"
C       -0.04440000       1.55170000       0.00720000
C        0.04090000       0.02520000      -0.01190000
C        0.74240000      -0.51660000      -1.26490000
C        1.02710000      -2.00030000      -1.08280000
O        1.77760000      -2.23850000       0.12420000
C        1.47150000      -1.42950000       1.16360000
N        0.70220000      -0.42560000       1.21730000
C        2.17910000      -1.84650000       2.35890000
N        2.74160000      -2.17530000       3.31270000
H        0.95740000       1.99280000      -0.00580000
H       -0.59580000       1.91920000      -0.86390000
H       -0.55080000       1.89000000       0.91420000
H       -0.98350000      -0.37360000       0.02170000
H        0.12830000      -0.36470000      -2.15800000
H        1.68610000       0.01990000      -1.41950000
H        0.09590000      -2.57690000      -1.01990000
H        1.63740000      -2.41410000      -1.88760000
