20
Properties=species:S:1:pos:R:3 gdb_57948=T pbc="F F F"
C       -0.96460000       1.02250000       0.41470000
N       -0.05970000      -0.04000000       0.00770000
C        1.12660000      -0.25250000       0.81720000
C       -0.44290000      -0.85910000      -1.03330000
O       -1.43380000      -0.64420000      -1.71320000
N        0.40020000      -1.94490000      -1.24200000
C        0.33920000      -2.92870000      -2.23420000
C       -0.69090000      -2.79450000      -3.32470000
N        1.20030000      -3.86490000      -2.11510000
H       -0.44940000       1.99040000       0.41090000
H       -1.79200000       1.05280000      -0.29150000
H       -1.35770000       0.84480000       1.42450000
H        1.01450000      -1.07480000       1.53920000
H        2.00820000      -0.44490000       0.19690000
H        1.32850000       0.65850000       1.38470000
H        1.12880000      -2.14700000      -0.57510000
H       -1.70120000      -2.81230000      -2.91230000
H       -0.59540000      -1.83690000      -3.84140000
H       -0.56360000      -3.61270000      -4.03710000
H        1.10240000      -4.53360000      -2.87610000
