18
Properties=species:S:1:pos:R:3 gdb_119548=T pbc="F F F"
C       -0.64010000       1.43860000      -0.67700000
O       -0.82800000       0.04250000      -0.71760000
C       -0.58820000      -0.58000000       0.52670000
C       -0.79720000      -2.05610000       0.37520000
C       -0.49800000      -2.83800000      -0.90760000
C       -1.88160000      -2.84530000      -0.33230000
N       -1.98010000      -3.74270000       0.82590000
C       -0.92950000      -3.08410000       1.49520000
O       -0.38800000      -3.29610000       2.54300000
H       -0.84490000       1.82370000      -1.67860000
H       -1.32480000       1.92080000       0.03770000
H        0.39140000       1.70230000      -0.39660000
H        0.44080000      -0.37890000       0.87020000
H       -1.26770000      -0.17910000       1.29780000
H       -0.34060000      -2.19870000      -1.77040000
H        0.10800000      -3.73900000      -0.87400000
H       -2.76940000      -2.47150000      -0.82340000
H       -2.03290000      -4.75320000       0.75190000
