18
Properties=species:S:1:pos:R:3 gdb_51603=T pbc="F F F"
O       -0.12970000       0.78440000       0.85630000
C        0.26820000       1.10910000      -0.23230000
C        1.59390000       1.78740000      -0.50320000
C        1.40730000       3.07060000      -1.29020000
C        1.12290000       4.37410000      -0.58130000
C        2.44820000       4.16410000      -1.26680000
N        3.62270000       4.02550000      -0.45660000
C        4.67140000       3.23370000      -0.82310000
O        4.67410000       2.48400000      -1.77440000
H       -0.34640000       0.92090000      -1.14450000
H        2.09240000       1.96870000       0.45170000
H        2.22120000       1.10120000      -1.08850000
H        0.92690000       2.93680000      -2.25570000
H        0.42550000       5.07990000      -1.01740000
H        1.11930000       4.35100000       0.50410000
H        2.61190000       4.68150000      -2.20910000
H        3.77120000       4.68690000       0.29020000
H        5.53090000       3.34410000      -0.13150000
