18
Properties=species:S:1:pos:R:3 gdb_73211=T pbc="F F F"
C       -0.16130000       1.55380000       0.03660000
C        0.02990000       0.05340000       0.00900000
C       -1.15070000      -0.86220000       0.40710000
O       -0.33300000      -1.56950000       1.35800000
C        0.76060000      -0.63720000       1.18890000
C        2.08010000      -1.31260000       0.86430000
N        2.21090000      -1.79100000      -0.50530000
C        1.49150000      -1.25850000      -1.39300000
O        0.54400000      -0.28870000      -1.28570000
H        0.80000000       2.06590000      -0.06980000
H       -0.80720000       1.87030000      -0.78790000
H       -0.61990000       1.86550000       0.97910000
H       -1.98920000      -0.34140000       0.88740000
H       -1.52490000      -1.51020000      -0.39220000
H        0.85790000       0.01210000       2.07000000
H        2.90030000      -0.60780000       1.06070000
H        2.22450000      -2.15570000       1.54920000
H        1.59430000      -1.54450000      -2.43830000
