15
Properties=species:S:1:pos:R:3 gdb_47154=T pbc="F F F"
O       -0.20080000       0.06570000      -0.87090000
C       -0.12700000       1.18050000      -0.39520000
N       -1.08580000       2.16320000      -0.40540000
C       -0.66280000       3.37530000       0.25900000
C        0.73250000       3.02530000       0.70700000
C        1.03480000       1.78030000       0.33590000
C        2.27670000       0.96250000       0.53260000
C        3.32440000       1.67220000       1.26110000
N        4.13780000       2.25420000       1.83910000
H       -1.98470000       2.02940000      -0.83570000
H       -0.66240000       4.24290000      -0.41650000
H       -1.30720000       3.62970000       1.11280000
H        1.36260000       3.71730000       1.25020000
H        2.02690000       0.03470000       1.06230000
H        2.66350000       0.63940000      -0.44200000
