15
Properties=species:S:1:pos:R:3 gdb_20152=T pbc="F F F"
O        0.05880000       1.42060000       0.01830000
C        0.03290000       0.00670000       0.01880000
C       -1.34010000      -0.62240000      -0.13410000
C       -1.67750000      -0.79770000      -1.61530000
C       -1.19740000      -1.95980000      -0.79370000
N        0.16070000      -1.98050000      -1.48740000
C       -0.29540000      -0.80120000      -2.29290000
C        0.69430000      -0.62260000      -1.19520000
H       -0.38200000       1.71370000      -0.78790000
H        0.51840000      -0.29730000       0.95140000
H       -2.13430000      -0.44610000       0.57960000
H       -2.63970000      -0.59760000      -2.06330000
H       -1.66350000      -2.88800000      -0.49310000
H       -0.08750000      -0.72290000      -3.35330000
H        1.75000000      -0.48270000      -1.39690000
