14
Properties=species:S:1:pos:R:3 gdb_11891=T pbc="F F F"
O        0.05630000       0.04090000      -0.12360000
C        0.01010000       1.22570000      -0.04950000
O       -1.11990000       1.96810000      -0.18190000
C       -0.83600000       3.34460000       0.08290000
C        0.68360000       3.38900000       0.07700000
C        1.51690000       4.29480000      -0.77350000
C        1.52480000       4.41970000       0.74390000
O        1.08010000       2.03140000       0.18340000
H       -1.29110000       3.95850000      -0.69780000
H       -1.26460000       3.61530000       1.05470000
H        2.39340000       3.86210000      -1.24180000
H        1.01200000       5.05820000      -1.35640000
H        1.02710000       5.26860000       1.20180000
H        2.40640000       4.07060000       1.26920000
