17
Properties=species:S:1:pos:R:3 gdb_91217=T pbc="F F F"
C       -0.55670000       1.44660000       0.02150000
C        0.02400000       0.05040000      -0.05110000
O        1.17610000      -0.06880000      -0.92560000
C        1.97300000      -0.69490000       0.08520000
C        2.82050000       0.33930000       0.86790000
C        1.71690000       0.35550000       1.94230000
O        1.68950000       0.66160000       3.10280000
C        0.78710000      -0.56180000       1.14860000
O        0.08520000      -1.51900000       1.85370000
H        0.19400000       2.17920000       0.33170000
H       -0.94320000       1.74620000      -0.95740000
H       -1.38540000       1.46950000       0.73680000
H       -0.74450000      -0.67380000      -0.35330000
H        2.43820000      -1.63070000      -0.22600000
H        3.76570000      -0.03410000       1.27440000
H        2.99800000       1.27320000       0.33070000
H        0.37430000      -1.47870000       2.77460000
