15
Properties=species:S:1:pos:R:3 gdb_67365=T pbc="F F F"
O        0.06060000       1.40190000      -0.01720000
C        0.00850000       0.03800000      -0.00240000
C       -0.01330000      -0.82120000       1.32280000
O       -1.42580000      -0.50550000       1.55500000
C       -1.33500000      -0.78360000       0.11860000
C       -0.40500000      -2.00280000       0.38780000
C        0.61530000      -2.16220000      -0.73720000
C        0.88810000      -0.68080000      -0.98990000
O        1.62030000      -0.13360000      -1.77730000
H        0.69920000       1.63380000      -0.71050000
H        0.67220000      -0.78760000       2.16970000
H       -2.24020000      -0.70480000      -0.48370000
H       -0.85960000      -2.86940000       0.85970000
H        1.52740000      -2.69020000      -0.44050000
H        0.21910000      -2.65270000      -1.63230000
