17
Properties=species:S:1:pos:R:3 gdb_25718=T pbc="F F F"
C       -0.01660000       1.50340000       0.00530000
C       -0.04860000      -0.01990000       0.04130000
O       -0.05950000      -0.61810000       1.11960000
C       -0.05430000      -0.73020000      -1.20540000
C       -0.04110000      -2.12340000      -1.39270000
N       -0.13570000      -3.04170000      -0.37750000
C        0.02430000      -2.36570000      -2.78930000
C        0.03980000      -1.13380000      -3.41570000
N       -0.00980000      -0.15700000      -2.47830000
H        0.87810000       1.86790000      -0.51330000
H       -0.89250000       1.90450000      -0.51850000
H       -0.01210000       1.87970000       1.02870000
H        0.01660000      -2.64050000       0.54040000
H        0.27710000      -3.94590000      -0.54090000
H        0.04640000      -3.32720000      -3.27870000
H        0.07730000      -0.89470000      -4.46740000
H       -0.01830000       0.82900000      -2.66600000
