18
Properties=species:S:1:pos:R:3 gdb_5108=T pbc="F F F"
C       -0.03310000       1.42850000      -0.00650000
N       -0.01070000      -0.01800000      -0.01160000
C       -0.00490000      -0.82420000      -1.13560000
C        0.01180000      -0.25980000      -2.51720000
C       -0.01540000      -2.13200000      -0.70720000
C       -0.00760000      -2.12910000       0.71490000
C       -0.00160000      -0.81360000       1.11990000
N       -0.05010000      -0.20940000       2.39800000
H        0.93870000       1.85500000      -0.28460000
H       -0.78490000       1.80370000      -0.70700000
H       -0.28880000       1.75900000       1.00120000
H        0.88730000       0.37650000      -2.70210000
H        0.03910000      -1.07620000      -3.24290000
H       -0.87640000       0.34670000      -2.73970000
H       -0.01840000      -2.99750000      -1.35320000
H        0.00100000      -2.98710000       1.37020000
H       -0.51620000      -0.81950000       3.05860000
H        0.87520000      -0.01150000       2.76950000
