20
Properties=species:S:1:pos:R:3 gdb_9608=T pbc="F F F"
C       -0.31430000       1.50150000       0.07270000
C        0.24430000       0.08110000      -0.07860000
C        0.83260000      -0.48630000       1.20480000
C        2.08270000       0.20610000       1.71620000
C       -0.11380000      -1.06040000       2.22300000
C        0.77960000      -2.00210000       1.42180000
C        0.21750000      -2.89450000       0.45190000
C       -0.24100000      -3.65670000      -0.35930000
H        0.46480000       2.22140000       0.34230000
H       -0.76450000       1.84160000      -0.86490000
H       -1.08610000       1.54070000       0.84890000
H       -0.54810000      -0.58630000      -0.43160000
H        1.01700000       0.07120000      -0.85880000
H        1.88440000       1.25320000       1.96890000
H        2.46700000      -0.28060000       2.61810000
H        2.87760000       0.18960000       0.96170000
H        0.11070000      -0.94120000       3.27770000
H       -1.17160000      -1.07780000       1.98520000
H        1.62670000      -2.41420000       1.96390000
H       -0.64640000      -4.32810000      -1.07460000
