18
Properties=species:S:1:pos:R:3 gdb_98076=T pbc="F F F"
C        0.25890000       1.21700000       0.14970000
N        0.04360000      -0.20240000      -0.09940000
C        0.29450000      -1.07590000       1.03770000
C       -0.34670000      -0.58400000      -1.34330000
O       -0.50370000       0.18880000      -2.28050000
C       -0.64250000      -2.06390000      -1.63820000
O       -1.11940000      -2.84850000      -0.84540000
C       -0.39470000      -2.48950000      -3.07320000
O       -0.69640000      -3.84080000      -3.25920000
H        1.29370000       1.39330000       0.46600000
H        0.05560000       1.76810000      -0.76630000
H       -0.40870000       1.56580000       0.94660000
H       -0.41990000      -0.86590000       1.84320000
H        0.19790000      -2.12040000       0.76140000
H        1.30400000      -0.89000000       1.42370000
H       -0.99040000      -1.83360000      -3.72390000
H        0.65870000      -2.27670000      -3.31760000
H       -1.06710000      -4.14690000      -2.41750000
