15
Properties=species:S:1:pos:R:3 gdb_49004=T pbc="F F F"
O       -0.74140000       1.28210000       0.70640000
C        0.17410000       0.94970000      -0.00340000
C        1.44700000       1.73450000      -0.13800000
C        1.89990000       2.63710000       1.03550000
C        2.14890000       3.76810000       0.02220000
O        2.57860000       4.87930000       0.09980000
C        1.61820000       2.92990000      -1.15630000
C        2.70330000       2.02060000      -1.77920000
O        2.51290000       1.00400000      -0.76780000
H        0.14050000       0.03670000      -0.63640000
H        1.05890000       2.87460000       1.69680000
H        2.75060000       2.28660000       1.62330000
H        0.84110000       3.34480000      -1.79600000
H        2.44350000       1.64310000      -2.77420000
H        3.72450000       2.41550000      -1.79530000
