22
Properties=species:S:1:pos:R:3 gdb_103298=T pbc="F F F"
C        0.24060000       1.40930000      -0.26020000
C        0.09050000      -0.08650000      -0.12700000
C        0.55760000      -1.20950000      -1.08770000
N       -0.09210000      -2.02120000       0.04790000
C        0.67630000      -1.03600000       0.95040000
C       -1.22220000      -0.93560000       0.02920000
C       -2.08630000      -0.84050000       1.28790000
C       -2.18840000      -1.13470000      -1.15280000
O       -2.66180000      -2.47280000      -1.16480000
H        1.29620000       1.69400000      -0.32840000
H       -0.26410000       1.77900000      -1.15950000
H       -0.19070000       1.92700000       0.60350000
H        0.09290000      -1.32560000      -2.06490000
H        1.63460000      -1.38140000      -1.16130000
H        1.75610000      -1.20620000       0.92930000
H        0.32490000      -0.97680000       1.97820000
H       -2.62450000       0.11420000       1.28560000
H       -2.83150000      -1.64060000       1.26030000
H       -1.54920000      -0.91340000       2.23230000
H       -3.06440000      -0.49110000      -1.01720000
H       -1.74860000      -0.86290000      -2.12020000
H       -1.90330000      -3.02780000      -0.93840000
