19
Properties=species:S:1:pos:R:3 gdb_86275=T pbc="F F F"
C       -0.54700000       1.07230000      -1.44610000
C        0.29270000      -0.10510000      -0.98860000
N        1.74230000      -0.00280000      -1.27080000
C        2.09300000      -0.55620000       0.05880000
C        3.26410000       0.10290000       0.76180000
C        0.64450000      -0.21540000       0.54040000
O        0.63370000       1.00050000       1.24970000
C       -0.06540000      -1.26120000       1.28230000
N       -0.65100000      -2.07290000       1.86140000
H       -0.14610000       2.00440000      -1.04200000
H       -0.53250000       1.13960000      -2.53850000
H       -1.59140000       0.95830000      -1.13370000
H       -0.15380000      -1.05190000      -1.32520000
H        2.06760000      -0.54420000      -2.06430000
H        2.21610000      -1.64870000       0.05350000
H        3.11440000       1.18120000       0.82770000
H        3.39170000      -0.30210000       1.77060000
H        4.18370000      -0.08930000       0.19920000
H       -0.28070000       1.24420000       1.43290000
