21
Properties=species:S:1:pos:R:3 gdb_73369=T pbc="F F F"
C       -0.03900000       1.46440000       0.00430000
C        0.01200000      -0.05250000      -0.00340000
C        0.65860000      -0.70370000      -1.24200000
C        0.34740000      -2.22090000      -1.06530000
C       -0.77660000      -2.22030000      -0.02530000
C       -0.42320000      -1.81380000       1.44300000
C        0.64330000      -0.71910000       1.26620000
O       -1.63960000      -1.00360000       1.49310000
C       -1.36860000      -0.79960000       0.08610000
H        0.96520000       1.90110000       0.04820000
H       -0.52750000       1.85010000      -0.89840000
H       -0.59880000       1.82680000       0.87290000
H        0.19060000      -0.32150000      -2.15790000
H        1.72910000      -0.48760000      -1.31430000
H        0.02440000      -2.68060000      -2.00350000
H        1.22070000      -2.78580000      -0.72240000
H       -1.50620000      -3.02800000      -0.07100000
H       -0.33170000      -2.52890000       2.26130000
H        1.65660000      -1.09430000       1.09540000
H        0.65200000      -0.05730000       2.13540000
H       -2.21150000      -0.41560000      -0.49040000
