16
Properties=species:S:1:pos:R:3 gdb_26756=T pbc="F F F"
N        0.10990000       1.55130000       0.18640000
C        0.02670000       0.16810000      -0.04710000
C       -1.00930000      -0.75400000       0.01110000
O       -2.29550000      -0.45040000       0.30910000
N       -0.62100000      -2.05330000      -0.22550000
C        0.68020000      -1.92190000      -0.38810000
C        1.98580000      -2.45630000      -0.94490000
C        2.44050000      -0.94430000      -0.88080000
N        1.12840000      -0.66090000      -0.25920000
H       -0.40380000       1.81820000       1.01960000
H       -0.26670000       2.09440000      -0.58430000
H       -2.77650000      -1.28650000       0.29710000
H        2.54890000      -3.14170000      -0.30650000
H        1.93780000      -2.86520000      -1.95730000
H        3.29300000      -0.70820000      -0.23970000
H        2.56850000      -0.47620000      -1.86020000
