20
Properties=species:S:1:pos:R:3 gdb_15423=T pbc="F F F"
C       -0.14280000       1.45730000      -0.51030000
C       -0.02350000       0.18430000       0.33670000
C       -1.33550000      -0.56340000       0.40710000
O       -1.74710000      -1.28960000      -0.75760000
C       -1.48380000      -2.02610000       0.44110000
C       -0.32960000      -2.99390000       0.43600000
O       -0.82740000      -4.26070000       0.06430000
C        0.17100000      -5.25150000       0.03290000
H        0.80910000       1.99460000      -0.55150000
H       -0.44130000       1.21010000      -1.53330000
H       -0.89460000       2.13870000      -0.09720000
H        0.75550000      -0.46290000      -0.07680000
H        0.28390000       0.44200000       1.35880000
H       -2.14550000       0.01380000       0.86190000
H       -2.37650000      -2.43700000       0.91590000
H        0.44740000      -2.65840000      -0.26640000
H        0.12370000      -3.04030000       1.44310000
H        0.95840000      -5.01680000      -0.70090000
H        0.64930000      -5.38170000       1.01730000
H       -0.30910000      -6.19020000      -0.25340000
