23
Properties=species:S:1:pos:R:3 gdb_111851=T pbc="F F F"
C       -0.02460000       1.53420000      -0.24760000
C       -0.00340000       0.08890000       0.26690000
C       -1.35510000      -0.58930000       0.13000000
C       -1.85480000      -1.27330000      -1.12770000
C       -0.83110000      -1.74100000      -2.14350000
O        0.16930000      -2.44670000      -1.41040000
C       -0.41250000      -2.96990000      -0.22050000
C       -1.60070000      -2.08360000       0.12930000
C       -2.69840000      -2.68660000       0.97340000
H        0.95170000       2.01300000      -0.12270000
H       -0.28320000       1.57190000      -1.31120000
H       -0.76310000       2.13850000       0.29160000
H        0.76200000      -0.48190000      -0.26450000
H        0.28530000       0.08850000       1.32650000
H       -2.14540000      -0.04350000       0.64560000
H       -2.86330000      -1.07780000      -1.47670000
H       -1.31380000      -2.39600000      -2.88710000
H       -0.32200000      -0.93500000      -2.68430000
H       -0.76440000      -4.00400000      -0.37410000
H        0.37450000      -2.99140000       0.54250000
H       -2.34680000      -2.91030000       1.98790000
H       -3.54610000      -2.00090000       1.06520000
H       -3.06910000      -3.62240000       0.53840000
