21
Properties=species:S:1:pos:R:3 gdb_120519=T pbc="F F F"
C        0.56990000       1.05820000      -0.25180000
C        0.00740000      -0.27260000       0.21800000
O       -1.30610000      -0.41150000      -0.29410000
C       -1.92090000      -1.62140000       0.04640000
C       -2.50130000      -1.79400000       1.48010000
C       -3.78360000      -2.42530000       0.83310000
C       -3.33800000      -1.78960000      -0.52970000
C       -3.80140000      -3.87620000       0.83960000
C       -3.80460000      -5.07920000       0.84090000
H        1.58800000       1.19660000       0.12400000
H        0.59300000       1.09990000      -1.34440000
H       -0.04880000       1.88490000       0.10880000
H        0.63820000      -1.10670000      -0.13320000
H       -0.00320000      -0.31890000       1.31910000
H       -1.27380000      -2.47230000      -0.21560000
H       -1.95590000      -2.40700000       2.19870000
H       -2.73010000      -0.81860000       1.91770000
H       -4.72900000      -2.04380000       1.22740000
H       -3.80210000      -0.81040000      -0.67040000
H       -3.46140000      -2.39120000      -1.43060000
H       -3.81680000      -6.14080000       0.84540000
