15
Properties=species:S:1:pos:R:3 gdb_28221=T pbc="F F F"
C        0.01960000       1.45190000       0.03690000
C        0.05640000      -0.03540000      -0.03530000
N       -0.11180000      -0.76060000      -1.13740000
C       -0.15420000      -2.03120000      -0.67270000
C       -0.01370000      -2.11100000       0.66340000
N        0.17680000      -0.83040000       1.10310000
O        0.24560000      -3.38050000       1.10290000
C       -0.16080000      -4.12790000      -0.08550000
O       -0.04060000      -3.28740000      -1.23860000
H        0.78920000       1.84550000       0.71030000
H        0.19560000       1.85180000      -0.96310000
H       -0.95090000       1.83100000       0.38300000
H        0.20970000      -0.49780000       2.05220000
H        0.48960000      -4.99620000      -0.19230000
H       -1.21530000      -4.41330000       0.04780000
