14
Properties=species:S:1:pos:R:3 gdb_4741=T pbc="F F F"
C        0.01310000       1.51770000       0.00260000
C        0.00360000       0.02340000      -0.02230000
C       -0.13490000      -0.81340000      -1.11730000
N       -0.07970000      -2.08330000      -0.62370000
C        0.08820000      -1.98780000       0.73600000
C        0.18490000      -3.18990000       1.56320000
O        0.33230000      -3.21270000       2.76060000
N        0.14020000      -0.71980000       1.11290000
H        0.95320000       1.89420000       0.41820000
H       -0.10870000       1.93060000      -1.00220000
H       -0.79510000       1.90170000       0.63310000
H       -0.26350000      -0.61060000      -2.16810000
H       -0.14910000      -2.93490000      -1.15740000
H        0.10770000      -4.13310000       0.96930000
