20
Properties=species:S:1:pos:R:3 gdb_10781=T pbc="F F F"
C       -0.81690000       1.22780000       0.17220000
C       -0.02910000      -0.06870000       0.04570000
C        0.78740000      -0.39310000      -1.25390000
C        1.23280000       0.80010000      -2.09600000
C        1.90410000      -0.98630000      -0.32720000
O        3.25100000      -0.69860000      -0.58930000
C        1.26080000      -0.24960000       0.88770000
O        1.90030000       1.00530000       1.11130000
H       -0.18050000       2.10310000       0.02740000
H       -1.62560000       1.26420000      -0.56540000
H       -1.26970000       1.31100000       1.16600000
H       -0.69010000      -0.91450000       0.26580000
H        0.31240000      -1.13320000      -1.90570000
H        1.67850000       1.59090000      -1.48550000
H        1.97690000       0.48590000      -2.83440000
H        0.38590000       1.23690000      -2.63470000
H        1.82120000      -2.07320000      -0.23930000
H        3.34970000       0.24950000      -0.43400000
H        1.16670000      -0.80260000       1.83020000
H        2.62080000       0.85770000       1.73160000
