21
Properties=species:S:1:pos:R:3 gdb_94739=T pbc="F F F"
O       -0.01770000       1.43790000      -0.03000000
C        0.05420000       0.02670000       0.09080000
C        0.55090000      -0.47780000       1.46340000
C        0.03490000      -1.92510000       1.52160000
C       -1.34290000      -1.87930000       0.82830000
O       -1.65180000      -3.05700000       0.11170000
C       -2.50720000      -1.28350000       1.67830000
C       -2.44850000       0.02560000       0.84060000
C       -1.33930000      -0.59270000      -0.05840000
H        0.87050000       1.79190000       0.07810000
H        0.70670000      -0.38870000      -0.69490000
H        1.63700000      -0.40280000       1.57870000
H        0.09490000       0.13500000       2.25000000
H        0.68240000      -2.58250000       0.93010000
H       -0.01040000      -2.32760000       2.53950000
H       -1.71440000      -3.78160000       0.74410000
H       -3.43180000      -1.84990000       1.54410000
H       -2.30800000      -1.17950000       2.74940000
H       -3.37100000       0.27000000       0.31140000
H       -2.12460000       0.91320000       1.38580000
H       -1.63010000      -0.75110000      -1.09700000
