23
Properties=species:S:1:pos:R:3 gdb_76677=T pbc="F F F"
C       -0.02000000       1.39150000      -1.55740000
C       -0.05000000       0.03430000      -0.88970000
C        1.22850000      -0.68860000      -0.47700000
C        2.60510000      -0.09340000      -0.68740000
C        0.30260000      -0.14540000       0.57330000
O        0.77480000       0.94030000       1.32320000
C       -0.16890000       1.46850000       2.20740000
C        0.04720000       2.87800000       2.64860000
C       -1.13200000       2.53560000       1.75690000
H        0.66060000       2.07700000      -1.04850000
H        0.29750000       1.31390000      -2.60330000
H       -1.01590000       1.84790000      -1.54970000
H       -0.84410000      -0.61530000      -1.25110000
H        1.19990000      -1.76930000      -0.59410000
H        2.63610000       0.96510000      -0.42490000
H        3.34140000      -0.60440000      -0.05780000
H        2.92710000      -0.20070000      -1.72900000
H       -0.28470000      -0.85060000       1.16160000
H       -0.52490000       0.74800000       2.94480000
H       -0.13060000       3.13150000       3.68750000
H        0.87640000       3.40310000       2.18820000
H       -1.07550000       2.85140000       0.72250000
H       -2.12970000       2.54460000       2.18280000
