18
Properties=species:S:1:pos:R:3 gdb_14179=T pbc="F F F"
C       -0.04470000       1.59290000       0.02230000
C        0.04990000       0.08430000       0.03730000
O       -1.15650000      -0.55870000      -0.30870000
C        1.29610000      -0.68640000      -0.35590000
C        2.64380000       0.00810000      -0.30090000
O        2.70850000       0.66820000       0.96310000
C        1.86900000      -0.01520000       1.89430000
C        0.79190000      -0.70450000       1.07970000
H        0.88690000       2.06050000       0.34430000
H       -0.27260000       1.95060000      -0.99010000
H       -0.85530000       1.92140000       0.68080000
H       -1.36170000      -0.32200000      -1.22030000
H        1.17320000      -1.55030000      -0.99870000
H        3.44860000      -0.73800000      -0.40000000
H        2.79640000       0.77480000      -1.06890000
H        2.43870000      -0.76750000       2.46250000
H        1.49760000       0.73520000       2.60090000
H        0.29700000      -1.57670000       1.48940000
