17
Properties=species:S:1:pos:R:3 gdb_96925=T pbc="F F F"
C       -0.07750000       1.34940000       0.06290000
N       -0.06120000      -0.10570000       0.04580000
C        0.52040000      -0.70430000       0.98680000
N        1.31330000      -0.28460000       2.10940000
C        1.64100000      -1.67680000       2.44810000
C        0.40670000      -2.49180000       2.66980000
O       -0.67040000      -1.93130000       3.35700000
C        0.76710000      -2.15690000       1.24160000
O        0.89240000      -3.14710000       0.30420000
H        0.69090000       1.79040000       0.71270000
H        0.06790000       1.72220000      -0.95590000
H       -1.05980000       1.70690000       0.39580000
H        0.82210000       0.23760000       2.82990000
H        2.63870000      -1.95150000       2.76520000
H        0.60890000      -3.54180000       2.89290000
H       -1.48430000      -2.21450000       2.92650000
H        1.27640000      -2.75470000      -0.48910000
