19
Properties=species:S:1:pos:R:3 gdb_18267=T pbc="F F F"
C        0.06900000       1.31870000       0.12480000
O       -0.15620000      -0.05400000      -0.10080000
C        0.56090000      -0.57690000      -1.20050000
C        2.07570000      -0.78700000      -0.94490000
C        2.41130000      -2.05600000      -1.75620000
N        1.17390000      -2.85230000      -1.90800000
C        0.46350000      -3.07580000      -0.64190000
C        0.05290000      -1.96800000      -1.54090000
H        1.11090000       1.53070000       0.40780000
H       -0.17490000       1.92180000      -0.76440000
H       -0.58440000       1.62330000       0.94610000
H        0.41350000       0.08130000      -2.07340000
H        2.68410000       0.06800000      -1.24810000
H        2.22950000      -0.93390000       0.12840000
H        2.74740000      -1.79270000      -2.76510000
H        3.19720000      -2.66420000      -1.29710000
H       -0.12630000      -3.98690000      -0.61270000
H        0.95310000      -2.82590000       0.29540000
H       -0.85310000      -2.04940000      -2.13340000
