18
Properties=species:S:1:pos:R:3 gdb_87327=T pbc="F F F"
C        0.01700000       1.52840000      -0.06530000
C        0.08830000       0.01980000      -0.00090000
C        1.38480000      -0.72530000      -0.10040000
C        0.62640000      -0.72810000       1.22600000
C        1.21030000       0.01510000       2.42690000
C        2.34590000      -0.75840000       3.07730000
O        3.42560000      -0.28510000       3.31710000
C       -0.07110000      -1.94330000       1.56910000
N       -0.63510000      -2.91170000       1.85880000
H        0.91510000       2.00580000       0.33430000
H       -0.08320000       1.84720000      -1.10790000
H       -0.84790000       1.91230000       0.48520000
H       -0.76140000      -0.47960000      -0.45760000
H        1.42510000      -1.64830000      -0.66610000
H        2.30310000      -0.14670000      -0.10910000
H        1.59520000       0.99440000       2.13930000
H        0.42480000       0.16470000       3.18010000
H        2.10950000      -1.81690000       3.32350000
