15
Properties=species:S:1:pos:R:3 gdb_131714=T pbc="F F F"
O        0.11940000       1.36800000      -0.16350000
C        0.03550000      -0.02810000      -0.14500000
C       -1.37500000      -0.52200000      -0.00390000
N       -2.32610000       0.34990000       0.08230000
C       -3.61880000      -0.11180000       0.21160000
N       -3.97960000      -1.35350000       0.25590000
N       -2.97790000      -2.25270000       0.16490000
C       -1.62200000      -1.97300000       0.03060000
N       -0.65820000      -2.81110000      -0.05750000
H       -0.78940000       1.69360000      -0.07760000
H        0.45760000      -0.46990000      -1.06170000
H        0.62720000      -0.45700000       0.67930000
H       -4.40470000       0.62940000       0.28270000
H       -3.28310000      -3.21480000       0.20180000
H       -0.97750000      -3.78030000      -0.01940000
