16
Properties=species:S:1:pos:R:3 gdb_33898=T pbc="F F F"
C       -0.00190000      -1.19740000      -0.09430000
C        0.03040000       0.00400000      -0.01660000
C        0.04130000       1.41610000       0.10940000
N        0.25360000       2.31730000      -1.05870000
C        1.18410000       2.40720000       0.07210000
C        0.52120000       3.27940000       1.16140000
C       -0.56800000       4.28090000       0.70820000
O       -1.59720000       3.25620000       0.78940000
C       -0.65020000       2.27770000       1.21980000
H       -0.02910000      -2.25630000      -0.16650000
H        0.69480000       1.75110000      -1.78280000
H        2.24220000       2.21300000      -0.05300000
H        1.13280000       3.51640000       2.02900000
H       -0.76470000       5.08710000       1.42390000
H       -0.46890000       4.68090000      -0.30370000
H       -0.95150000       1.71620000       2.10680000
