18
Properties=species:S:1:pos:R:3 gdb_109417=T pbc="F F F"
C       -0.32050000       1.32400000       0.08900000
O        0.27300000       0.06240000      -0.18070000
C        0.79180000      -0.55410000       0.96030000
C       -0.16670000      -1.26290000       1.95470000
O       -1.07800000      -0.93280000       2.64860000
N        0.49170000      -2.55040000       1.84730000
C        0.35410000      -2.89540000       0.39020000
C        1.40490000      -1.93710000       0.75290000
C        2.87370000      -2.22550000       0.70210000
H        0.41710000       2.02980000       0.50030000
H       -0.69000000       1.70930000      -0.86340000
H       -1.15400000       1.23530000       0.79590000
H        1.47220000       0.11730000       1.51080000
H        0.65050000      -3.91980000       0.18940000
H       -0.53410000      -2.56470000      -0.13970000
H        3.28890000      -1.91240000      -0.26220000
H        3.41090000      -1.69120000       1.49210000
H        3.06380000      -3.29540000       0.82250000
