18
Properties=species:S:1:pos:R:3 gdb_72202=T pbc="F F F"
C        0.01620000       1.45010000      -0.03820000
C        0.03870000      -0.04780000       0.02350000
O       -0.18810000      -0.66000000      -1.23010000
C       -0.10070000      -2.05900000      -1.01560000
C       -1.33630000      -2.53920000      -0.23000000
N       -0.62920000      -2.23710000       1.06520000
C       -0.44290000      -0.77580000       1.27260000
C        1.02860000      -0.82350000       0.84200000
C        0.70490000      -2.22760000       0.33790000
H        0.76700000       1.81750000      -0.74480000
H       -0.96500000       1.80890000      -0.36370000
H        0.22930000       1.87710000       0.94560000
H        0.20020000      -2.54590000      -1.94570000
H       -2.26480000      -1.99120000      -0.40910000
H       -1.51570000      -3.61670000      -0.29810000
H       -0.92410000      -0.26820000       2.10320000
H        1.93720000      -0.45310000       1.29640000
H        1.37170000      -3.07590000       0.48340000
