15
Properties=species:S:1:pos:R:3 gdb_23300=T pbc="F F F"
O       -0.12070000       1.33100000       0.07750000
N        0.03690000      -0.05970000       0.03320000
C       -1.09080000      -0.64270000      -0.05110000
C       -2.47310000      -0.05240000      -0.03070000
C       -3.40150000      -1.27150000       0.06660000
O       -4.59710000      -1.25530000       0.08450000
N       -2.62790000      -2.48960000       0.13940000
C       -1.96170000      -2.77470000      -1.15240000
C       -1.20400000      -2.12760000      -0.04810000
H        0.78710000       1.64070000       0.16960000
H       -2.61230000       0.61120000       0.82950000
H       -2.71590000       0.54420000      -0.91580000
H       -1.81320000      -3.82990000      -1.35780000
H       -2.24040000      -2.17420000      -2.01460000
H       -0.47480000      -2.70170000       0.51220000
