17
Properties=species:S:1:pos:R:3 gdb_15699=T pbc="F F F"
O        0.04790000       1.42760000      -0.05490000
C        0.05990000       0.02150000      -0.10220000
C       -1.35560000      -0.56150000       0.01590000
C       -1.47180000      -2.09450000      -0.02090000
C       -2.67470000      -2.40920000       0.89870000
N       -2.68120000      -1.27010000       1.80410000
C       -1.98890000      -0.18710000       1.35980000
O       -1.88430000       0.88430000       1.93580000
H       -0.47680000       1.65870000       0.72860000
H        0.50530000      -0.27010000      -1.06040000
H        0.69010000      -0.41370000       0.69400000
H       -1.97440000      -0.09980000      -0.76480000
H       -1.60680000      -2.49680000      -1.02640000
H       -0.56460000      -2.54230000       0.40000000
H       -3.61190000      -2.47360000       0.32870000
H       -2.55090000      -3.34890000       1.44530000
H       -3.25360000      -1.21290000       2.63160000
