18
Properties=species:S:1:pos:R:3 gdb_12125=T pbc="F F F"
C       -0.07500000       1.54090000       0.00460000
C        0.01050000       0.04350000       0.01210000
C       -0.86220000      -0.87470000       0.82350000
C        0.63220000      -0.89830000       1.03920000
C        1.37320000      -1.64210000      -0.12370000
C        2.69670000      -2.32390000      -0.03290000
O        0.38880000      -2.15110000      -1.04290000
C        0.75330000      -0.76170000      -1.10980000
H        0.89230000       1.99920000      -0.23450000
H       -0.80140000       1.89670000      -0.73690000
H       -0.38800000       1.92010000       0.98260000
H       -1.42180000      -0.38160000       1.61320000
H       -1.35870000      -1.72050000       0.36490000
H        1.10080000      -0.64540000       1.98220000
H        2.62140000      -3.24160000       0.56200000
H        3.05870000      -2.58900000      -1.02970000
H        3.43400000      -1.67300000       0.44870000
H        1.09790000      -0.37890000      -2.06460000
