21
Properties=species:S:1:pos:R:3 gdb_93085=T pbc="F F F"
C       -0.13040000       1.56960000       0.03610000
C        0.02230000       0.06960000      -0.04010000
C       -0.02490000      -0.54980000      -1.22520000
C        0.09010000      -2.01350000      -1.57780000
O        1.32430000      -2.26020000      -2.26090000
C       -0.10970000      -3.00410000      -0.41880000
C        0.95860000      -2.88270000       0.63730000
C        1.09820000      -1.79900000       1.39790000
C        0.19180000      -0.59140000       1.32140000
H        0.76630000       2.03580000       0.46520000
H       -0.31100000       2.01250000      -0.94630000
H       -0.96580000       1.84530000       0.69320000
H       -0.13100000       0.08140000      -2.10660000
H       -0.67480000      -2.23150000      -2.33400000
H        2.02440000      -1.97310000      -1.66300000
H       -1.10220000      -2.83010000       0.02070000
H       -0.11690000      -4.01310000      -0.84020000
H        1.64400000      -3.71630000       0.76450000
H        1.88740000      -1.76550000       2.14480000
H        0.55450000       0.16910000       2.02060000
H       -0.80770000      -0.86470000       1.70070000
