20
Properties=species:S:1:pos:R:3 gdb_47738=T pbc="F F F"
O        0.03650000      -0.05360000       0.05890000
C        0.02960000       1.16780000       0.02310000
N       -1.14420000       1.86920000       0.05320000
C       -1.32280000       3.31290000      -0.01460000
C       -0.05860000       4.03610000       0.44730000
C        1.15340000       3.46800000      -0.29530000
C        1.29610000       1.98220000      -0.01200000
C        2.36030000       1.50080000       0.96790000
C        2.52350000       1.24410000      -0.49740000
H       -1.96380000       1.27990000       0.04830000
H       -1.56880000       3.62510000      -1.04170000
H       -2.17630000       3.58920000       0.61460000
H       -0.16990000       5.10900000       0.26220000
H        0.07020000       3.89770000       1.52720000
H        1.02250000       3.63260000      -1.37410000
H        2.07050000       3.99390000      -0.00960000
H        2.97550000       2.26120000       1.43800000
H        2.09820000       0.65720000       1.59520000
H        2.36350000       0.23100000      -0.84530000
H        3.25740000       1.82450000      -1.04670000
