19
Properties=species:S:1:pos:R:3 gdb_121577=T pbc="F F F"
C       -0.07220000       1.41880000       0.11520000
C        0.02370000      -0.10330000      -0.02200000
C        0.74180000      -0.51020000      -1.29830000
O        0.78230000      -1.95070000      -1.33840000
C        1.39040000      -2.48370000      -2.41510000
O        1.88200000      -1.83820000      -3.30970000
C        1.37600000      -3.92530000      -2.35690000
C        1.39800000      -5.12970000      -2.36910000
C        1.42110000      -6.58190000      -2.37860000
H        0.92070000       1.88080000       0.14000000
H       -0.62260000       1.86130000      -0.72210000
H       -0.59070000       1.69570000       1.03720000
H        0.55670000      -0.52920000       0.83560000
H       -0.97760000      -0.54860000      -0.02150000
H        0.22550000      -0.14240000      -2.19170000
H        1.76600000      -0.12310000      -1.33130000
H        1.94910000      -6.96600000      -3.25730000
H        1.92190000      -6.96920000      -1.48470000
H        0.40340000      -6.98670000      -2.39010000
