15
Properties=species:S:1:pos:R:3 gdb_129847=T pbc="F F F"
N        0.06770000       1.32400000      -0.22750000
C       -0.03630000      -0.01440000      -0.08660000
C       -1.18980000      -0.74600000      -0.05180000
C       -1.09490000      -2.16060000       0.07070000
O       -2.26080000      -2.84990000       0.09670000
N        0.00990000      -2.83430000       0.15740000
N        1.15040000      -2.07220000       0.12620000
C        1.26170000      -0.71020000       0.02120000
N        2.34400000      -0.00540000       0.01190000
H        1.00020000       1.69920000      -0.12110000
H       -0.73470000       1.92160000      -0.14730000
H       -2.16840000      -0.28730000      -0.12010000
H       -2.02540000      -3.78370000       0.18100000
H        1.99340000      -2.61810000       0.20690000
H        3.18360000      -0.57650000       0.09790000
