18
Properties=species:S:1:pos:R:3 gdb_17852=T pbc="F F F"
C        0.03920000       1.52370000      -0.09530000
C        1.58470000       1.51230000       0.11200000
C        1.44570000       0.07590000       0.62700000
C        0.01100000      -0.02370000       0.09140000
C        2.42580000      -1.06530000       0.73510000
C        3.75090000      -0.53300000       1.27270000
O        3.08710000       0.12120000       2.39030000
C        1.83280000      -0.42720000       1.97750000
H       -0.48180000       2.04600000       0.71050000
H       -0.32610000       1.90600000      -1.05050000
H        2.13600000       1.57710000      -0.83180000
H        2.00360000       2.23540000       0.81510000
H       -0.74740000      -0.43310000       0.76530000
H       -0.04830000      -0.56010000      -0.86130000
H        2.26070000      -2.03610000       0.28520000
H        4.42600000      -1.31530000       1.63720000
H        4.30750000       0.17470000       0.64660000
H        1.15220000      -0.78070000       2.74540000
