21
Properties=species:S:1:pos:R:3 gdb_83648=T pbc="F F F"
C       -0.66710000       1.30860000      -0.02590000
C       -0.03530000      -0.07190000      -0.10900000
C        1.19740000      -0.24660000      -1.03730000
O        2.06560000       0.90600000      -1.07030000
C        2.96190000       0.32110000      -0.09490000
C        2.02290000      -0.87510000       0.12480000
C        0.84090000      -0.58710000       1.06130000
C        0.92090000      -0.05310000       2.46290000
C        0.38390000      -1.44190000       2.20570000
H       -1.21030000       1.54620000      -0.94710000
H       -1.38100000       1.36860000       0.80290000
H        0.09940000       2.07380000       0.11870000
H       -0.79320000      -0.82280000      -0.36700000
H        1.05180000      -0.68220000      -2.02960000
H        3.92650000       0.06430000      -0.55240000
H        3.13260000       0.98050000       0.76450000
H        2.44540000      -1.87970000       0.12040000
H        1.90060000       0.04070000       2.92130000
H        0.21880000       0.72050000       2.75700000
H       -0.68290000      -1.60820000       2.32290000
H        0.99980000      -2.28940000       2.49080000
