19
Properties=species:S:1:pos:R:3 gdb_38128=T pbc="F F F"
C       -0.02540000       1.54730000       0.03860000
C        1.53600000       1.46810000       0.01380000
C        1.97150000       1.24070000       1.44490000
C        1.39750000       0.22780000       2.09600000
C        0.51910000      -0.70080000       1.27710000
O        1.34860000      -1.75120000       0.74980000
C        2.15790000      -1.14800000      -0.27100000
C        1.36940000       0.08410000      -0.73290000
C        0.00020000       0.00320000      -0.00540000
H       -0.48470000       2.04590000       0.89540000
H       -0.43490000       1.95360000      -0.89120000
H        2.09320000       2.25940000      -0.48920000
H        2.68040000       1.91630000       1.91350000
H        1.61670000      -0.02210000       3.12850000
H       -0.26130000      -1.18430000       1.86840000
H        3.14610000      -0.87880000       0.12590000
H        2.29290000      -1.88960000      -1.06450000
H        1.31750000       0.20430000      -1.81620000
H       -0.83230000      -0.54200000      -0.45420000
