23
Properties=species:S:1:pos:R:3 gdb_59697=T pbc="F F F"
C       -0.07590000       1.55620000       0.05320000
C        0.02690000       0.03130000      -0.09030000
C        0.79810000      -0.35750000      -1.36010000
C        0.67240000      -0.57830000       1.15530000
C       -0.01980000      -0.45750000       2.54090000
C        0.46390000      -1.89200000       2.87240000
C        0.72380000      -2.14530000       1.35560000
C       -0.40940000      -2.87360000       0.68530000
O       -0.28550000      -3.62420000      -0.25090000
H        0.92000000       2.00860000       0.13360000
H       -0.57160000       1.99950000      -0.81640000
H       -0.64490000       1.84110000       0.94410000
H       -0.99540000      -0.36490000      -0.17730000
H        1.82740000       0.01870000      -1.31830000
H        0.83970000      -1.44250000      -1.49140000
H        0.32560000       0.07030000      -2.25030000
H        1.70290000      -0.20920000       1.23200000
H        0.30260000       0.35140000       3.20020000
H       -1.10940000      -0.40640000       2.44310000
H        1.39820000      -1.89810000       3.43820000
H       -0.24420000      -2.56120000       3.36900000
H        1.65820000      -2.63210000       1.07010000
H       -1.41880000      -2.67630000       1.11910000
