21
Properties=species:S:1:pos:R:3 gdb_114254=T pbc="F F F"
C        0.28100000       1.64890000      -0.68750000
O       -0.35440000       0.40290000      -0.51360000
C        0.42590000      -0.68030000      -0.94050000
C        1.61860000      -1.14150000      -0.04950000
C        1.13940000      -2.59620000      -0.26150000
C        1.94040000      -3.57420000      -1.15040000
C        1.95010000      -4.47530000       0.09840000
O        1.19000000      -3.50660000       0.85030000
C       -0.23530000      -2.05350000      -0.71160000
H        1.20920000       1.72390000      -0.10110000
H        0.52670000       1.83640000      -1.74500000
H       -0.41370000       2.41960000      -0.34510000
H        0.73950000      -0.53640000      -1.98650000
H        2.63980000      -0.88790000      -0.34500000
H        1.44720000      -0.84390000       0.98930000
H        1.39590000      -3.97020000      -2.01000000
H        2.91720000      -3.21310000      -1.47840000
H        1.41840000      -5.42970000       0.00550000
H        2.93390000      -4.65980000       0.54630000
H       -0.91170000      -1.99600000       0.14580000
H       -0.74160000      -2.54080000      -1.54800000
