18
Properties=species:S:1:pos:R:3 gdb_11358=T pbc="F F F"
O       -0.01260000       1.41500000       0.21900000
C       -0.04720000       0.01960000      -0.01390000
C       -1.46040000      -0.46460000      -0.02000000
C       -2.55670000       0.25830000       0.21820000
C       -3.82170000      -0.54300000       0.03800000
O       -4.56440000      -0.11610000      -1.10820000
C       -3.30590000      -2.00580000      -0.05320000
C       -1.78550000      -1.90990000      -0.33420000
H        0.90760000       1.68840000       0.26650000
H        0.42540000      -0.24150000      -0.97840000
H        0.51710000      -0.53290000       0.75870000
H       -2.56240000       1.31810000       0.43880000
H       -4.52750000      -0.42200000       0.86640000
H       -3.92940000       0.02320000      -1.81960000
H       -3.47500000      -2.51550000       0.90000000
H       -3.85720000      -2.55510000      -0.81990000
H       -1.52690000      -2.15120000      -1.37480000
H       -1.20790000      -2.60700000       0.28510000
