18
Properties=species:S:1:pos:R:3 gdb_14354=T pbc="F F F"
C       -0.06880000       1.55000000       0.10620000
C        1.45170000       1.28430000       0.05360000
C        1.19210000       0.09110000       1.05600000
C        0.08910000      -0.01060000      -0.04050000
C       -0.91780000      -0.87140000      -0.73480000
C       -0.75110000      -0.69550000      -2.05560000
C        0.41170000       0.24850000      -2.41210000
C        1.19480000       0.23580000      -1.08540000
H       -0.47340000       1.90750000       1.05690000
H       -0.51630000       2.08390000      -0.73400000
H        2.25430000       2.02000000       0.12840000
H        1.94020000      -0.70620000       1.07400000
H        0.87880000       0.37470000       2.06460000
H       -1.70900000      -1.45010000      -0.27320000
H       -1.39500000      -1.12120000      -2.81900000
H        1.00200000      -0.11410000      -3.25960000
H        0.02030000       1.23100000      -2.70410000
H        1.94710000      -0.56050000      -1.11250000
