21
Properties=species:S:1:pos:R:3 gdb_103954=T pbc="F F F"
C       -0.16990000       1.63320000       0.01460000
C       -0.03900000       0.11070000       0.03600000
C       -1.41560000      -0.54630000      -0.14120000
O       -2.07070000      -0.17400000      -1.34330000
C        1.01180000      -0.55320000      -0.92760000
C        1.64390000      -1.28200000       0.26420000
C        2.16230000      -0.30940000       1.25990000
O        2.79470000       0.86370000       0.82820000
C        0.67820000      -0.54720000       1.23260000
H        0.80860000       2.11480000      -0.00900000
H       -0.74070000       1.94890000      -0.86370000
H       -0.71020000       1.98570000       0.90190000
H       -1.31340000      -1.64060000      -0.06420000
H       -2.08270000      -0.22280000       0.66660000
H       -1.53410000      -0.48630000      -2.07930000
H        0.56130000      -1.23460000      -1.65570000
H        1.67900000       0.13280000      -1.45430000
H        1.95790000      -2.31910000       0.26250000
H        2.64870000      -0.78150000       2.11550000
H        2.63240000       1.54750000       1.48670000
H        0.16090000      -0.93240000       2.10680000
