15
Properties=species:S:1:pos:R:3 gdb_99435=T pbc="F F F"
C        0.02770000       1.55080000       0.02470000
C        0.00710000       0.02290000       0.01020000
C       -1.43960000      -0.55880000      -0.01850000
C       -2.16570000      -0.12570000      -1.22410000
N       -2.71900000       0.24000000      -2.16930000
C       -1.43680000      -2.01600000       0.08510000
C       -1.40200000      -3.21690000       0.19450000
C       -1.36330000      -4.57690000       0.31800000
N       -1.32720000      -5.73240000       0.42680000
H        1.05920000       1.91170000       0.05340000
H       -0.44990000       1.96530000      -0.86770000
H       -0.49040000       1.94850000       0.90390000
H        0.54980000      -0.36650000      -0.85610000
H        0.49320000      -0.38050000       0.90360000
H       -1.98520000      -0.15550000       0.84690000
