18
Properties=species:S:1:pos:R:3 gdb_37726=T pbc="F F F"
C       -0.01210000       1.53960000       0.08940000
C        1.53770000       1.37620000       0.04510000
C        1.76470000       0.61700000       1.36490000
C        1.99550000      -0.86560000       1.23070000
O        2.61590000      -1.44300000       0.12550000
C        2.08610000      -0.97700000      -1.10740000
C        1.18730000       0.22400000      -0.93070000
N       -0.04870000       0.01990000      -0.06230000
C        0.57880000      -0.36010000       1.23330000
H       -0.46790000       1.91350000       1.00940000
H       -0.45110000       2.02140000      -0.78910000
H        2.23200000       2.17930000      -0.20830000
H        2.01590000       1.15950000       2.26890000
H        2.30910000      -1.38520000       2.13090000
H        2.92740000      -0.72270000      -1.76490000
H        1.51280000      -1.78430000      -1.58810000
H        0.86240000       0.58840000      -1.90820000
H       -0.11370000      -0.60280000       2.03040000
