15
Properties=species:S:1:pos:R:3 gdb_11607=T pbc="F F F"
N       -0.20520000       1.27240000       0.12590000
C        0.03890000      -0.05540000      -0.08150000
O        1.10510000      -0.53490000      -0.38760000
O       -1.11080000      -0.76220000       0.07110000
C       -0.98710000      -2.17400000      -0.14560000
C       -2.37280000      -2.74190000      -0.23460000
C       -2.64320000      -4.12980000       0.15750000
O       -3.03020000      -3.04340000       0.99710000
H        0.60350000       1.85780000       0.24390000
H       -1.05500000       1.54040000       0.59260000
H       -0.42610000      -2.35310000      -1.06820000
H       -0.43920000      -2.63130000       0.68480000
H       -3.01500000      -2.27750000      -0.98340000
H       -3.45680000      -4.67280000      -0.32050000
H       -1.83320000      -4.75040000       0.53910000
