16
Properties=species:S:1:pos:R:3 gdb_43148=T pbc="F F F"
O        0.00070000       0.04660000       0.10670000
C       -0.01530000       1.23300000      -0.01780000
C       -1.17170000       2.25470000      -0.00070000
C       -0.68850000       3.06700000       1.22190000
O        0.76570000       3.03830000       1.13570000
C        1.10880000       2.28890000      -0.04430000
C        0.69610000       3.12370000      -1.25050000
N       -0.05470000       2.33510000      -2.25210000
C       -0.79520000       3.09290000      -1.22360000
H       -2.17890000       1.84840000       0.05800000
H       -1.02680000       4.10950000       1.20500000
H       -0.99820000       2.60750000       2.16710000
H        2.13500000       1.93780000       0.03390000
H        1.25610000       4.00490000      -1.54050000
H       -0.07710000       2.83500000      -3.13660000
H       -1.39130000       3.95450000      -1.50350000
