18
Properties=species:S:1:pos:R:3 gdb_121426=T pbc="F F F"
N       -0.35280000       1.32560000      -0.30780000
C        0.14380000       0.16190000       0.16750000
N        1.29680000      -0.10590000       0.65720000
C        2.28560000       0.95280000       0.77510000
C        3.61780000       0.38580000       1.28550000
N        4.23810000      -0.62290000       0.43110000
H        3.55740000      -1.35550000       0.24830000
H        4.46060000      -0.21730000      -0.47450000
H        0.57190000      -1.89350000       0.83570000
C       -0.84270000      -0.99520000       0.08210000
O       -0.33870000      -2.13160000       0.54750000
O       -1.95630000      -0.86470000      -0.35960000
H        0.13790000       2.19570000      -0.21150000
H       -1.31840000       1.32220000      -0.59770000
H        2.44800000       1.43950000      -0.20280000
H        1.92870000       1.73800000       1.46410000
H        4.32630000       1.20980000       1.42800000
H        3.44590000      -0.06160000       2.27170000
