19
Properties=species:S:1:pos:R:3 gdb_89305=T pbc="F F F"
O        0.46040000       0.68360000      -0.97140000
C       -0.00840000      -0.27280000      -0.06880000
C        0.02950000      -0.00310000       1.47210000
C       -1.38850000      -0.64200000       1.59400000
O       -1.48050000      -1.86660000       2.26240000
C       -2.54050000       0.37900000       1.73480000
C       -2.50130000       0.59190000       0.18920000
O       -1.93480000       1.82230000      -0.25090000
C       -1.52030000      -0.60750000       0.03000000
H       -0.13920000       1.43770000      -0.90210000
H        0.53610000      -1.19720000      -0.28610000
H        0.81840000      -0.52440000       2.02050000
H        0.05700000       1.06050000       1.72260000
H       -1.15250000      -1.74600000       3.16040000
H       -3.46490000      -0.11390000       2.04870000
H       -2.36640000       1.26450000       2.35560000
H       -3.46690000       0.43000000      -0.30350000
H       -2.49820000       2.54400000       0.04400000
H       -1.90530000      -1.44170000      -0.55620000
