17
Properties=species:S:1:pos:R:3 gdb_18459=T pbc="F F F"
C       -0.01370000       1.37840000       0.40840000
C        0.04880000       0.01850000      -0.28050000
N       -1.23650000      -0.67180000      -0.13760000
C       -1.41950000      -2.08270000      -0.30320000
C       -0.21460000      -2.90800000       0.18550000
C       -0.43780000      -2.24440000       1.57320000
O        0.01930000      -2.44840000       2.66060000
C       -1.60400000      -1.41690000       1.06440000
H        0.91950000       1.92790000       0.25420000
H       -0.84090000       1.97340000       0.01200000
H       -0.16250000       1.26260000       1.48670000
H        0.21300000       0.14800000      -1.35640000
H        0.90270000      -0.55310000       0.10910000
H       -2.20470000      -2.43820000      -0.96080000
H       -0.41990000      -3.98030000       0.26070000
H        0.74150000      -2.76280000      -0.32230000
H       -2.49400000      -1.12820000       1.61280000
