19
Properties=species:S:1:pos:R:3 gdb_1139=T pbc="F F F"
C       -0.61780000       1.59940000      -0.05300000
C       -0.03070000       0.19300000       0.01700000
C       -1.11640000      -0.85950000      -0.22800000
C        1.24570000      -0.06450000      -0.84950000
C        1.87720000      -0.80620000       0.35740000
O        3.24930000      -0.66220000       0.62940000
C        0.83020000      -0.13190000       1.28170000
H        0.14950000       2.36140000       0.12070000
H       -1.06450000       1.79320000      -1.03550000
H       -1.40280000       1.73830000       0.70000000
H       -1.57350000      -0.72680000      -1.21540000
H       -0.71740000      -1.87800000      -0.18240000
H       -1.91220000      -0.78170000       0.52170000
H        1.12890000      -0.61270000      -1.78850000
H        1.78360000       0.86870000      -1.05450000
H        1.71270000      -1.88510000       0.29120000
H        3.44020000       0.27950000       0.69650000
H        1.24070000       0.78060000       1.73000000
H        0.37600000      -0.73490000       2.07300000
