19
Properties=species:S:1:pos:R:3 gdb_66482=T pbc="F F F"
C        0.07010000       1.54430000       0.03800000
C       -0.03940000       0.05560000      -0.00500000
C        0.88020000      -1.01370000      -0.55980000
C        0.48360000      -1.02330000       0.92040000
C       -0.79310000      -1.88430000       0.84900000
O       -1.45510000      -2.04450000       2.05710000
C       -0.53100000      -3.03110000      -0.16240000
C       -0.26220000      -1.87210000      -1.15360000
C       -1.21680000      -0.91960000      -0.33850000
H        1.08570000       1.85010000       0.31370000
H       -0.15830000       1.99370000      -0.93580000
H       -0.61710000       1.97610000       0.77500000
H        1.90870000      -0.92500000      -0.88740000
H        1.19600000      -0.95490000       1.73270000
H       -2.27430000      -2.52280000       1.89140000
H        0.26770000      -3.74900000       0.04830000
H       -1.45780000      -3.56250000      -0.41220000
H       -0.32370000      -2.00310000      -2.23220000
H       -2.24150000      -0.67840000      -0.61360000
