21
Properties=species:S:1:pos:R:3 gdb_91491=T pbc="F F F"
C        0.01760000       1.53800000       0.12400000
C        0.12410000       0.02580000      -0.06510000
C        1.10140000      -0.47620000      -1.16970000
C        1.98030000      -1.39130000      -0.30910000
C        2.27410000      -0.44910000       0.96910000
C        0.74100000      -0.73150000       1.14820000
O       -0.27720000      -1.16170000       2.10730000
C       -0.44540000      -2.36490000       1.25310000
C        1.00420000      -2.12680000       0.70270000
H        0.99170000       2.00510000       0.30130000
H       -0.41660000       2.01150000      -0.76300000
H       -0.62760000       1.77260000       0.97730000
H       -0.88250000      -0.35480000      -0.25560000
H        0.59200000      -1.01480000      -1.97380000
H        1.68300000       0.33300000      -1.62370000
H        2.79890000      -1.92590000      -0.79240000
H        2.90250000      -0.93970000       1.71170000
H        2.63000000       0.56470000       0.76640000
H       -0.57330000      -3.26280000       1.86180000
H       -1.28970000      -2.24710000       0.56920000
H        1.64870000      -2.61540000       1.43790000
