21
Properties=species:S:1:pos:R:3 gdb_119377=T pbc="F F F"
C       -0.16760000       1.50390000      -0.09890000
C       -0.04610000      -0.02130000      -0.06090000
C        0.83910000      -0.57250000      -1.18700000
C        0.92450000      -2.06770000      -1.21350000
C        1.38510000      -3.08990000      -0.14660000
C        0.71540000      -3.86990000      -1.29120000
O       -0.36290000      -2.84480000      -1.33370000
C        1.49480000      -3.01120000      -2.32350000
O        0.97880000      -2.88600000      -3.60490000
H        0.81230000       1.98410000       0.00200000
H       -0.60470000       1.84260000      -1.04470000
H       -0.80360000       1.87160000       0.71220000
H        0.36300000      -0.33520000       0.90740000
H       -1.03800000      -0.48020000      -0.13700000
H        0.46120000      -0.23780000      -2.16220000
H        1.85940000      -0.17560000      -1.09900000
H        2.45970000      -3.21830000       0.00970000
H        0.81670000      -3.07350000       0.78290000
H        0.40520000      -4.91380000      -1.33610000
H        2.57860000      -3.13340000      -2.38620000
H        0.02200000      -2.79920000      -3.47560000
