14
Properties=species:S:1:pos:R:3 gdb_45723=T pbc="F F F"
O       -0.07760000      -0.08580000      -0.12980000
C       -0.08350000       1.08470000       0.09570000
C       -1.28200000       2.00260000       0.07840000
C       -1.17030000       3.07840000       1.18030000
N        0.14050000       3.73910000       1.14540000
C        1.11280000       3.04310000       0.75410000
O        1.11780000       1.72070000       0.36390000
C       -2.25490000       4.05140000       1.07110000
C       -3.17420000       4.81540000       0.95970000
H       -1.30790000       2.50210000      -0.89770000
H       -2.18690000       1.40210000       0.17330000
H       -1.25270000       2.58710000       2.16210000
H        2.12320000       3.44010000       0.71420000
H       -3.97840000       5.50400000       0.87260000
