21
Properties=species:S:1:pos:R:3 gdb_59244=T pbc="F F F"
C        0.75500000      -0.99600000      -1.25010000
C        0.16210000      -0.39450000       0.02560000
O        0.36360000       1.02060000       0.06870000
C       -1.34220000      -0.60400000       0.11320000
C       -1.85450000      -2.04570000       0.24110000
O       -1.40170000      -2.55790000       1.50320000
C       -2.57760000      -1.73620000       1.48240000
C       -2.11520000      -0.26940000       1.46060000
C       -1.35350000       0.24010000       2.67660000
H        1.83380000      -0.80920000      -1.30140000
H        0.60780000      -2.08040000      -1.28160000
H        0.29130000      -0.55100000      -2.13660000
H        0.63380000      -0.87050000       0.89660000
H        1.31210000       1.18400000       0.07410000
H       -1.81850000      -0.08750000      -0.72680000
H       -2.06580000      -2.77140000      -0.53630000
H       -3.48260000      -2.16760000       1.89570000
H       -2.95540000       0.39310000       1.23060000
H       -0.60370000      -0.48830000       2.99720000
H       -0.84450000       1.17940000       2.44690000
H       -2.03670000       0.41040000       3.51600000
