16
Properties=species:S:1:pos:R:3 gdb_36160=T pbc="F F F"
N        0.06260000      -1.17920000      -0.13550000
C        0.02180000      -0.02490000      -0.13840000
C       -0.02790000       1.43760000      -0.12260000
C        1.34130000       2.05600000       0.02790000
C        2.30930000       1.77060000       1.20810000
C        2.98880000       3.07340000       0.78790000
C        2.82780000       3.11140000      -0.74090000
O        2.18980000       1.89990000      -1.14530000
C        1.71440000       3.58990000       0.12310000
H       -0.48900000       1.79250000      -1.05030000
H       -0.66560000       1.75880000       0.70860000
H        1.81230000       1.87450000       2.17600000
H        2.86600000       0.83100000       1.15450000
H        3.74320000       3.64500000       1.31200000
H        3.48920000       3.61510000      -1.43220000
H        1.15020000       4.50900000       0.19870000
