21
Properties=species:S:1:pos:R:3 gdb_73982=T pbc="F F F"
C       -0.17110000       1.37650000      -0.38670000
C       -0.05950000       0.03630000       0.26690000
C       -1.09400000      -0.81890000       0.45450000
C       -1.78240000      -1.29650000      -0.84090000
C       -0.73300000      -2.45490000      -0.71760000
C        0.66140000      -2.16720000      -0.01130000
C        1.24380000      -0.76260000       0.21120000
C       -0.60000000      -2.25080000       0.76720000
C       -0.97920000      -3.11760000       1.92920000
H        0.34790000       1.40220000      -1.35500000
H       -1.21620000       1.66040000      -0.53860000
H        0.29490000       2.15630000       0.23070000
H       -2.79150000      -1.71430000      -0.74300000
H       -1.74900000      -0.61610000      -1.69770000
H       -0.83890000      -3.41550000      -1.21980000
H        1.32840000      -3.02790000      -0.05680000
H        1.84950000      -0.37580000      -0.61840000
H        1.89070000      -0.75040000       1.10090000
H       -0.56590000      -2.73110000       2.86820000
H       -2.06720000      -3.17520000       2.04890000
H       -0.60250000      -4.13710000       1.79390000
