13
Properties=species:S:1:pos:R:3 gdb_25520=T pbc="F F F"
O        0.03440000      -0.02900000       0.13120000
C       -0.00950000       1.14370000      -0.06170000
O        1.08080000       1.93710000       0.21220000
C        0.97850000       3.29420000       0.12400000
N       -0.22700000       3.84700000       0.20370000
C       -0.25530000       5.18070000       0.13270000
C        0.89760000       5.94250000       0.00620000
C        2.09550000       5.23610000      -0.05510000
N        2.15010000       3.90560000      -0.00440000
H       -0.85610000       1.70980000      -0.46900000
H       -1.23770000       5.64260000       0.19020000
H        0.86730000       7.02340000      -0.03890000
H        3.04830000       5.75060000      -0.15230000
