20
Properties=species:S:1:pos:R:3 gdb_85956=T pbc="F F F"
C       -0.61520000       1.24210000       0.98820000
C        0.04600000      -0.08750000       0.66100000
C        0.82780000      -0.16270000      -0.67780000
C        2.13140000      -0.32030000       0.16700000
C        3.13310000       0.82250000       0.06850000
N        1.30670000      -0.38040000       1.41470000
H        1.54850000       0.31940000       2.11010000
H        1.97600000      -2.11870000       1.49170000
C        2.84210000      -1.66490000      -0.07450000
O        3.55060000      -1.86810000      -1.02600000
O        2.57680000      -2.58280000       0.86110000
H        0.07490000       2.08020000       0.84000000
H       -1.48610000       1.40480000       0.34450000
H       -0.96110000       1.26290000       2.02780000
H       -0.68040000      -0.89630000       0.79500000
H        0.58810000      -1.01410000      -1.31610000
H        0.79680000       0.74880000      -1.27880000
H        2.63100000       1.79320000       0.12420000
H        3.87110000       0.76610000       0.87690000
H        3.67040000       0.75240000      -0.88020000
