21
Properties=species:S:1:pos:R:3 gdb_89316=T pbc="F F F"
C       -0.05170000       1.51260000      -0.02580000
C        0.08520000       0.00160000       0.04140000
O        0.96610000      -0.51380000      -0.97900000
C        1.92480000      -1.28560000      -0.21200000
C        2.93250000      -1.92580000      -1.12220000
C        2.27430000      -0.32550000       0.95940000
C        0.78380000      -0.58700000       1.29180000
O        0.29400000      -0.24910000       2.54860000
C        1.02140000      -2.05210000       0.79130000
H        0.91040000       2.01420000       0.10510000
H       -0.46180000       1.81120000      -0.99490000
H       -0.73130000       1.86170000       0.75860000
H       -0.91060000      -0.45370000      -0.08260000
H        3.46860000      -1.16250000      -1.69490000
H        3.66010000      -2.50400000      -0.54600000
H        2.43660000      -2.59620000      -1.83090000
H        2.94040000      -0.77510000       1.69770000
H        2.59380000       0.68670000       0.70710000
H       -0.62760000      -0.52650000       2.60240000
H        0.17580000      -2.60770000       0.37620000
H        1.58070000      -2.65300000       1.51050000
