18
Properties=species:S:1:pos:R:3 gdb_18875=T pbc="F F F"
O        0.24240000       1.37670000       0.22180000
C        0.01220000       0.00460000      -0.00990000
C       -1.39750000      -0.57010000      -0.00440000
C       -2.08780000      -0.40920000      -1.35260000
C       -1.63320000       0.67940000      -2.32450000
C       -0.11960000       0.38970000      -2.54030000
C        0.23760000      -0.61540000      -1.43650000
C       -1.03720000      -1.46520000      -1.19150000
H       -0.44150000       1.87790000      -0.23170000
H        0.63400000      -0.52170000       0.71980000
H       -1.97220000      -0.82100000       0.88060000
H       -3.12960000      -0.71210000      -1.35550000
H       -2.19220000       0.61070000      -3.26320000
H       -1.81720000       1.68910000      -1.93590000
H        0.05100000      -0.05320000      -3.52670000
H        0.49660000       1.29120000      -2.47280000
H        1.18890000      -1.12700000      -1.58190000
H       -1.16680000      -2.53140000      -1.31300000
