16
Properties=species:S:1:pos:R:3 gdb_33668=T pbc="F F F"
C       -0.03080000      -1.19540000       0.02890000
C       -0.02150000       0.00840000       0.01200000
C       -0.00120000       1.42230000      -0.01480000
C       -0.69000000       2.50650000       0.82490000
N        0.57340000       3.20770000       1.04890000
C        1.21730000       2.39490000      -0.03260000
C        1.07730000       3.08460000      -1.38380000
O       -0.33890000       3.28550000      -1.52660000
C       -0.97530000       2.37930000      -0.65910000
H       -0.04130000      -2.25670000       0.04840000
H       -1.43500000       2.39710000       1.60580000
H        0.52000000       4.19990000       0.81630000
H        2.20650000       2.00720000       0.21130000
H        1.56820000       4.06290000      -1.42270000
H        1.46450000       2.45800000      -2.20180000
H       -1.94190000       2.03310000      -1.00400000
