16
Properties=species:S:1:pos:R:3 gdb_74344=T pbc="F F F"
C        0.03790000       1.53630000      -0.01730000
C       -0.04610000       0.04830000      -0.01180000
C       -1.09810000      -0.76200000       0.11290000
C       -0.67170000      -2.22040000       0.05180000
N        0.75950000      -2.09750000      -0.16750000
C        1.19420000      -0.78880000      -0.14360000
O        2.34150000      -0.40530000      -0.21950000
C       -1.01800000      -2.97470000       1.25920000
C       -1.30850000      -3.60890000       2.23720000
H        0.71160000       1.88100000       0.77430000
H        0.46600000       1.89280000      -0.96060000
H       -0.94160000       1.99910000       0.12300000
H       -2.13720000      -0.48910000       0.24060000
H       -1.15300000      -2.70900000      -0.81030000
H        1.39650000      -2.86890000      -0.05690000
H       -1.56160000      -4.16340000       3.10720000
