21
Properties=species:S:1:pos:R:3 gdb_36705=T pbc="F F F"
C       -0.03530000      -1.23910000      -0.08940000
C       -0.04330000      -0.03860000      -0.02610000
C       -0.01760000       1.41690000       0.05020000
C        1.40980000       1.99940000      -0.01900000
C        1.44100000       3.52780000       0.04830000
C        0.92610000       4.13950000       1.38360000
C        1.80530000       5.35210000       1.57630000
C        2.84960000       5.34900000       0.75020000
C        2.85990000       4.13330000      -0.14440000
H       -0.04100000      -2.29920000      -0.14430000
H       -0.62050000       1.83640000      -0.76660000
H       -0.50350000       1.73900000       0.98010000
H        2.00610000       1.58120000       0.80150000
H        1.88140000       1.65890000      -0.94820000
H        0.80670000       3.92120000      -0.75700000
H       -0.14110000       4.38690000       1.34870000
H        1.04940000       3.43590000       2.22150000
H        1.60620000       6.10300000       2.33330000
H        3.63480000       6.09690000       0.72950000
H        3.64360000       3.42760000       0.17100000
H        3.06920000       4.36960000      -1.19410000
