21
Properties=species:S:1:pos:R:3 gdb_109788=T pbc="F F F"
C       -0.52530000       1.33800000       0.23900000
C        0.17010000       0.00820000      -0.07880000
C        0.90580000      -0.54260000       1.12790000
C        0.16380000      -1.31050000       2.19870000
O       -1.20980000      -1.54060000       2.12540000
C        1.16090000      -2.03750000       1.32090000
C        0.75060000      -3.05730000       0.30630000
C        0.00910000      -4.27320000       0.67660000
O       -0.65300000      -3.19610000      -0.00460000
H        0.19300000       2.08830000       0.58810000
H       -1.02810000       1.74340000      -0.64470000
H       -1.27290000       1.19550000       1.02450000
H       -0.57340000      -0.71190000      -0.43290000
H        0.87850000       0.14480000      -0.90610000
H        1.70320000       0.10550000       1.48700000
H        0.45860000      -1.13610000       3.22980000
H       -1.37680000      -2.07040000       1.33130000
H        2.10930000      -2.30060000       1.78560000
H        1.37890000      -3.11610000      -0.58370000
H        0.11900000      -5.18170000       0.08840000
H       -0.29230000      -4.41090000       1.71260000
