16
Properties=species:S:1:pos:R:3 gdb_127867=T pbc="F F F"
C        0.08110000       1.43590000       0.03710000
N       -0.02220000      -0.00160000      -0.02920000
C       -1.14220000      -0.60950000      -0.07180000
C       -2.48810000      -0.01020000      -0.06270000
N       -3.59370000      -0.65540000      -0.10680000
O       -3.49050000      -2.05200000      -0.16910000
C       -2.25030000      -2.62230000      -0.17770000
C       -2.36280000      -4.11190000      -0.24630000
N       -1.13310000      -2.01130000      -0.13470000
H        0.68220000       1.78290000      -0.81200000
H       -0.85780000       2.00660000       0.04040000
H        0.64170000       1.70550000       0.94030000
H       -2.62890000       1.06420000      -0.01530000
H       -2.90450000      -4.40900000      -1.14960000
H       -1.36370000      -4.54520000      -0.25220000
H       -2.92840000      -4.48830000       0.61180000
