16
Properties=species:S:1:pos:R:3 gdb_16821=T pbc="F F F"
C        0.20040000       1.52350000      -0.07280000
C       -0.03410000       0.03250000       0.09900000
O        0.43050000      -0.66180000      -1.08720000
C        1.13660000      -1.79060000      -0.77590000
N        1.45420000      -2.70360000      -1.58810000
C        1.44590000      -1.77710000       0.68070000
N        2.17110000      -0.53440000       1.06900000
C        0.71540000      -0.62220000       1.24990000
H        1.27220000       1.72690000      -0.12010000
H       -0.27390000       1.88030000      -0.99060000
H       -0.22980000       2.07150000       0.77180000
H       -1.10680000      -0.17990000       0.20140000
H        1.08750000      -2.49650000      -2.51910000
H        1.63790000      -2.70790000       1.19690000
H        2.63020000      -0.70330000       1.96150000
H        0.28000000      -0.62930000       2.24260000
