16
Properties=species:S:1:pos:R:3 gdb_83919=T pbc="F F F"
O       -0.03470000       1.37350000      -0.01890000
C       -0.03120000      -0.00500000      -0.01530000
C       -0.45330000      -0.72780000       1.22340000
O       -1.03410000       0.11910000       2.17800000
C       -2.45150000       0.19130000       1.92000000
C       -2.60730000       0.05690000       0.39460000
C       -1.37940000      -0.77660000       0.00780000
C       -1.51860000      -1.95620000      -0.78540000
N       -1.61620000      -2.91030000      -1.43420000
H       -0.21280000       1.64580000       0.89380000
H        0.74360000      -0.44090000      -0.63800000
H        0.05960000      -1.60220000       1.61030000
H       -2.95770000      -0.63030000       2.44350000
H       -2.80830000       1.14190000       2.32270000
H       -3.53440000      -0.44560000       0.11540000
H       -2.57230000       1.03170000      -0.09940000
