19
Properties=species:S:1:pos:R:3 gdb_93381=T pbc="F F F"
O        0.03200000       1.45310000      -0.05600000
C        0.02520000       0.02530000      -0.01190000
C        0.82260000      -0.49350000       1.19320000
C        0.08880000      -0.21140000       2.51530000
C       -1.21470000      -0.99880000       2.55720000
O       -1.53700000      -1.66980000       3.51380000
C       -2.04420000      -0.95080000       1.31910000
C       -2.44860000       0.39540000       0.73500000
C       -1.43440000      -0.43290000       0.01650000
H        0.95010000       1.73980000      -0.10350000
H        0.48210000      -0.37120000      -0.93020000
H        0.97930000      -1.57330000       1.07880000
H        1.81870000      -0.03300000       1.20030000
H        0.68000000      -0.49570000       3.38820000
H       -0.11920000       0.86320000       2.58310000
H       -2.77840000      -1.74640000       1.26210000
H       -3.44880000       0.46360000       0.32340000
H       -2.09970000       1.29620000       1.22350000
H       -1.77260000      -0.93820000      -0.88140000
