18
Properties=species:S:1:pos:R:3 gdb_72186=T pbc="F F F"
C        0.04010000       1.46910000      -0.05400000
C       -0.04050000      -0.02900000      -0.01070000
O        0.14690000      -0.67240000      -1.29100000
C       -0.75270000      -1.73930000      -0.87380000
C        0.06580000      -2.85900000      -0.24090000
C        0.44990000      -2.23370000       1.08660000
C        0.65950000      -0.76410000       1.15950000
N       -0.64710000      -1.39730000       1.62890000
C       -1.26170000      -0.89190000       0.33610000
H        1.05370000       1.78610000      -0.32390000
H       -0.65410000       1.86890000      -0.79800000
H       -0.20270000       1.89480000       0.92450000
H       -1.43590000      -2.03150000      -1.67330000
H       -0.53900000      -3.75720000      -0.06960000
H        0.92190000      -3.12250000      -0.86740000
H        0.95410000      -2.83860000       1.83460000
H        1.34960000      -0.31020000       1.86490000
H       -2.29200000      -0.55170000       0.40360000
