16
Properties=species:S:1:pos:R:3 gdb_45286=T pbc="F F F"
O       -0.18290000       0.08860000       0.40760000
C       -0.10670000       1.24030000       0.09910000
C       -1.07130000       2.30050000      -0.47570000
N        0.08700000       3.22030000      -0.71420000
C        0.28760000       4.26880000       0.34550000
C        1.30600000       3.37890000       1.08860000
O        2.65720000       3.47250000       0.60040000
C        2.49510000       2.31310000      -0.26140000
C        1.00440000       2.26940000       0.03370000
H       -1.58420000       2.00590000      -1.39670000
H       -1.81680000       2.66120000       0.24370000
H        0.70090000       5.20050000      -0.04890000
H       -0.62030000       4.48930000       0.91940000
H        1.25890000       3.27870000       2.17570000
H        2.76740000       2.51770000      -1.30120000
H        3.05510000       1.45080000       0.12030000
