25
Properties=species:S:1:pos:R:3 gdb_118489=T pbc="F F F"
C        1.24210000       1.68330000      -1.90450000
C        1.08740000       0.33440000      -1.19610000
C        1.32750000      -0.85690000      -2.13270000
C        1.11720000      -2.24120000      -1.49120000
C        1.22610000      -3.39340000      -2.51240000
C        0.10660000      -3.43300000      -3.55720000
C        2.11070000      -2.47480000      -0.36960000
C        1.78340000      -2.29820000       1.05100000
O        1.86790000      -3.60290000       0.47650000
H        2.25040000       1.80040000      -2.31720000
H        0.53390000       1.77720000      -2.73530000
H        1.06460000       2.51820000      -1.21940000
H        1.78000000       0.28750000      -0.34750000
H        0.07840000       0.25950000      -0.76890000
H        0.66100000      -0.76000000      -2.99760000
H        2.34980000      -0.80240000      -2.53540000
H        0.11090000      -2.27660000      -1.04920000
H        2.20070000      -3.33470000      -3.01680000
H        1.22550000      -4.33490000      -1.95220000
H       -0.87730000      -3.49080000      -3.07820000
H        0.10930000      -2.55070000      -4.20480000
H        0.21130000      -4.31050000      -4.20290000
H        3.15990000      -2.36710000      -0.65860000
H        2.56620000      -2.04900000       1.76670000
H        0.78120000      -1.97630000       1.33180000
