20
Properties=species:S:1:pos:R:3 gdb_115923=T pbc="F F F"
C        0.06100000       1.36580000      -0.07050000
O        0.09710000      -0.05030000      -0.02150000
C        0.70380000      -0.56460000       1.11180000
C        0.52620000      -2.08130000       1.10990000
C        1.44690000      -2.73960000       2.12850000
N        2.84330000      -2.95320000       1.69880000
C        2.55760000      -1.95120000       2.73180000
C        2.72570000      -0.50210000       2.31850000
O        2.08020000      -0.21520000       1.09440000
H        1.06870000       1.79200000      -0.11010000
H       -0.48600000       1.63600000      -0.97610000
H       -0.46610000       1.78030000       0.80250000
H        0.25270000      -0.12470000       2.02720000
H       -0.51970000      -2.31740000       1.32830000
H        0.75450000      -2.44760000       0.10510000
H        0.99670000      -3.51410000       2.74440000
H        3.21390000      -3.79750000       2.12670000
H        2.84380000      -2.16660000       3.75980000
H        2.33180000       0.14250000       3.12450000
H        3.78250000      -0.25720000       2.17240000
