17
Properties=species:S:1:pos:R:3 gdb_80517=T pbc="F F F"
N        0.09880000       1.44470000       0.11070000
C       -0.04480000       0.01600000       0.10980000
C       -0.48260000      -0.78080000       1.28480000
C       -1.57970000      -0.05750000       2.06640000
C       -2.48300000      -0.07400000       0.78580000
O       -2.89650000       1.15680000       0.22730000
C       -1.36770000      -0.75660000      -0.01130000
C       -1.57770000      -1.76960000      -0.98750000
N       -1.74570000      -2.59410000      -1.78450000
H        0.35290000       1.75400000      -0.82230000
H       -0.78960000       1.89040000       0.31860000
H        0.74510000      -0.47380000      -0.45280000
H        0.08520000      -1.62650000       1.65170000
H       -2.00150000      -0.64700000       2.88200000
H       -1.30730000       0.93260000       2.44190000
H       -3.33460000      -0.75070000       0.91610000
H       -3.66360000       1.47280000       0.71590000
