15
Properties=species:S:1:pos:R:3 gdb_50030=T pbc="F F F"
O        0.17890000       0.22200000       0.64970000
C        0.13070000       1.34140000       0.21400000
N        1.13990000       1.92560000      -0.55520000
C        2.54800000       1.81190000      -0.24220000
C        1.83970000       3.13060000      -0.21920000
C        1.99730000       4.40900000      -1.06670000
N        1.79770000       5.14300000       0.19190000
C        1.61420000       4.04170000       0.99700000
O        1.36950000       3.88750000       2.16160000
H       -0.74840000       2.00440000       0.30850000
H        2.80670000       1.36660000       0.71530000
H        3.20450000       1.57200000      -1.07380000
H        2.98090000       4.55350000      -1.52360000
H        1.20830000       4.56150000      -1.80880000
H        1.81510000       6.12820000       0.40410000
