22
Properties=species:S:1:pos:R:3 gdb_58313=T pbc="F F F"
C        0.04330000       1.27480000       0.49100000
C       -0.05130000      -0.14240000      -0.09270000
C        0.90390000      -1.09300000       0.64210000
C       -1.49360000      -0.67670000      -0.06410000
C       -2.50620000       0.21790000      -0.77970000
O       -1.45620000      -1.97100000      -0.70030000
C       -2.47310000      -2.85890000      -0.33050000
C       -2.34750000      -3.33890000       1.06280000
N       -2.24660000      -3.70370000       2.15450000
H        1.08650000       1.60440000       0.51090000
H       -0.52170000       2.00740000      -0.09130000
H       -0.32820000       1.30210000       1.52260000
H        0.24540000      -0.10360000      -1.15030000
H        0.65210000      -1.15400000       1.70760000
H        0.85680000      -2.10090000       0.22650000
H        1.93550000      -0.73550000       0.56490000
H       -1.79340000      -0.81050000       0.98720000
H       -3.48820000      -0.26170000      -0.83760000
H       -2.64190000       1.16340000      -0.24910000
H       -2.17330000       0.43280000      -1.80010000
H       -3.47970000      -2.43120000      -0.44980000
H       -2.40390000      -3.72110000      -1.00130000
