17
Properties=species:S:1:pos:R:3 gdb_44746=T pbc="F F F"
O       -0.00020000       0.12960000       0.64440000
C       -0.03980000       1.23090000       0.16340000
C       -1.33960000       1.94930000      -0.20400000
C       -1.08440000       3.33790000      -0.79850000
C        0.01940000       3.25660000      -1.88810000
C        1.06170000       3.38590000      -0.72940000
C       -0.06310000       4.11340000       0.07770000
C        1.28650000       2.02090000      -0.12490000
O        2.35730000       1.53750000       0.13090000
H       -1.88640000       1.30740000      -0.90560000
H       -1.95350000       2.00860000       0.70310000
H       -2.02090000       3.83710000      -1.05540000
H        0.05810000       2.36590000      -2.52280000
H        0.04100000       4.14660000      -2.52130000
H        2.01010000       3.89190000      -0.91010000
H       -0.05890000       5.18350000      -0.14230000
H       -0.09650000       3.97210000       1.16240000
