16
Properties=species:S:1:pos:R:3 gdb_128668=T pbc="F F F"
C        0.13700000       1.35900000      -0.11560000
O        0.03210000      -0.05900000       0.00090000
C        0.52650000      -0.58570000       1.11830000
N        1.12330000       0.13880000       2.07470000
N        1.52270000      -0.88000000       2.89510000
C        1.70240000      -1.31510000       4.29830000
C        1.34600000      -2.76550000       3.76810000
C        1.07710000      -2.05390000       2.45150000
N        0.43840000      -1.94900000       1.30560000
H        1.18440000       1.67510000      -0.08790000
H       -0.31150000       1.61170000      -1.07680000
H       -0.40050000       1.85840000       0.69680000
H        2.70770000      -1.15230000       4.69250000
H        0.95320000      -0.90280000       4.97830000
H        2.16840000      -3.48300000       3.77520000
H        0.46690000      -3.20840000       4.23950000
