18
Properties=species:S:1:pos:R:3 gdb_118634=T pbc="F F F"
C        0.43100000       0.65320000       0.52680000
O       -0.26920000       0.24650000      -0.64230000
C        0.46830000      -0.54620000      -1.53830000
C        0.52760000      -2.02670000      -1.13540000
O        1.47430000      -2.17960000      -0.09610000
C        1.81410000      -3.44240000       0.26180000
N        2.60810000      -3.61730000       1.22330000
C       -0.86450000      -2.51170000      -0.73440000
O       -1.09980000      -3.12850000       0.26820000
H        0.66730000      -0.19080000       1.18190000
H        1.36670000       1.16780000       0.26430000
H       -0.22460000       1.35240000       1.05040000
H       -0.04300000      -0.47500000      -2.50490000
H        1.49670000      -0.17770000      -1.66440000
H        0.82970000      -2.60850000      -2.02510000
H        1.36000000      -4.21550000      -0.36920000
H        2.78280000      -4.61110000       1.35490000
H       -1.65520000      -2.26350000      -1.47590000
