19
Properties=species:S:1:pos:R:3 gdb_32951=T pbc="F F F"
C       -0.34080000       1.27820000      -0.94620000
O       -0.27840000      -0.12920000      -0.96920000
C        0.85040000      -0.63850000      -0.27530000
C        0.86630000      -2.11890000      -0.41010000
C        1.14220000      -3.14220000       0.45670000
N        1.07390000      -4.35920000      -0.18430000
C        0.74930000      -4.08810000      -1.43120000
C        0.52590000      -5.08890000      -2.51510000
N        0.62940000      -2.73920000      -1.62050000
H       -0.43160000       1.66510000       0.08060000
H        0.55010000       1.73490000      -1.40620000
H       -1.22530000       1.57530000      -1.51450000
H        1.76690000      -0.18430000      -0.69510000
H        0.81990000      -0.36750000       0.79160000
H        1.39360000      -3.07030000       1.50450000
H       -0.49830000      -5.04820000      -2.90440000
H        1.20650000      -4.93590000      -3.36070000
H        0.69920000      -6.08560000      -2.10770000
H        0.30370000      -2.26420000      -2.44620000
