21
Properties=species:S:1:pos:R:3 gdb_95256=T pbc="F F F"
C       -0.06080000       1.55300000      -0.02860000
C        0.02980000       0.02300000      -0.00390000
C        0.53330000      -0.51090000      -1.36080000
O        1.02220000      -1.84270000      -1.32260000
C        1.97170000      -2.06390000      -0.29900000
C        3.04060000      -0.94230000      -0.03710000
C        2.35080000      -0.63850000       1.29210000
C        1.44590000      -1.86830000       1.13470000
C        0.84580000      -0.49760000       1.17360000
H        0.93260000       2.00290000      -0.13490000
H       -0.67990000       1.90360000      -0.86220000
H       -0.50250000       1.93700000       0.89680000
H       -0.98310000      -0.37760000       0.14490000
H       -0.28760000      -0.51710000      -2.08420000
H        1.30590000       0.16340000      -1.75960000
H        2.40420000      -3.04440000      -0.50150000
H        4.02220000      -1.39790000       0.11860000
H        3.15010000      -0.13940000      -0.77000000
H        2.85910000      -0.30290000       2.18850000
H        1.20210000      -2.65410000       1.83900000
H        0.39700000      -0.25110000       2.13460000
