13
Properties=species:S:1:pos:R:3 gdb_11695=T pbc="F F F"
O       -0.55000000       0.75480000       0.68500000
C        0.20080000       0.97870000      -0.23140000
C        1.38000000       1.86440000      -0.12170000
C        1.85720000       2.62330000       1.12320000
C        2.08990000       3.84220000       0.18840000
O        2.34080000       4.99400000       0.38220000
C        1.67070000       3.06700000      -1.04900000
N        2.40700000       1.81040000      -1.14200000
H        0.06150000       0.54350000      -1.24340000
H        1.06200000       2.84220000       1.84060000
H        2.71250000       2.19270000       1.65100000
H        1.14450000       3.42420000      -1.92670000
H        3.34500000       1.85770000      -0.74860000
