19
Properties=species:S:1:pos:R:3 gdb_33037=T pbc="F F F"
C        0.06220000       1.55340000       0.09820000
C        0.08910000       0.02420000       0.06010000
C        0.60840000      -0.52320000      -1.28430000
C        0.65110000      -2.01090000      -1.35450000
C       -0.02820000      -2.88190000      -2.11180000
O        0.34760000      -4.18280000      -1.80730000
C        1.30900000      -4.12900000      -0.81790000
N        1.91430000      -5.09930000      -0.27100000
N        1.48080000      -2.78940000      -0.54020000
H        1.06320000       1.97280000      -0.05230000
H       -0.58660000       1.95760000      -0.68670000
H       -0.31090000       1.91860000       1.05950000
H        0.71650000      -0.35430000       0.87660000
H       -0.91540000      -0.37620000       0.23900000
H       -0.02930000      -0.16130000      -2.09810000
H        1.61170000      -0.11570000      -1.47470000
H       -0.77610000      -2.75870000      -2.87460000
H        1.60000000      -5.98300000      -0.66240000
H        2.15680000      -2.46450000       0.12680000
