19
Properties=species:S:1:pos:R:3 gdb_122796=T pbc="F F F"
C       -0.14110000       1.38930000       0.20590000
O       -0.06930000       0.01120000      -0.06780000
C       -1.29240000      -0.65590000       0.14040000
C       -1.09670000      -2.13050000      -0.18500000
C       -2.37740000      -2.93740000       0.01310000
C       -2.21910000      -4.40510000      -0.30110000
O       -1.19750000      -4.93240000      -0.67550000
C       -3.46150000      -5.29280000      -0.12840000
O       -4.53020000      -4.88020000       0.23760000
H        0.84800000       1.81300000       0.01600000
H       -0.87520000       1.89770000      -0.43970000
H       -0.41620000       1.58510000       1.25470000
H       -1.62640000      -0.53210000       1.18640000
H       -2.08270000      -0.22110000      -0.49790000
H       -0.74910000      -2.22760000      -1.21830000
H       -0.29830000      -2.53480000       0.44530000
H       -2.75690000      -2.86120000       1.04190000
H       -3.20320000      -2.55690000      -0.60460000
H       -3.26500000      -6.35700000      -0.37830000
