19
Properties=species:S:1:pos:R:3 gdb_32848=T pbc="F F F"
C        0.11540000       1.43000000       0.06260000
C       -0.07800000      -0.05120000      -0.24250000
N       -1.39300000      -0.49780000       0.22120000
C       -1.72050000      -1.83800000       0.13490000
C       -2.90740000      -2.48740000      -0.05590000
C       -2.60890000      -3.89100000       0.06280000
N       -3.56130000      -4.92010000       0.01380000
C       -1.27320000      -3.98540000       0.29820000
O       -0.71890000      -2.71330000       0.35140000
H        1.10520000       1.76160000      -0.26370000
H       -0.62750000       2.04410000      -0.46040000
H        0.01800000       1.62120000       1.13500000
H        0.06250000      -0.23790000      -1.32000000
H        0.67510000      -0.64540000       0.28070000
H       -2.14720000       0.08850000      -0.10950000
H       -3.87100000      -2.03900000      -0.24010000
H       -4.27610000      -4.74960000      -0.68240000
H       -3.14710000      -5.82770000      -0.15550000
H       -0.58750000      -4.80110000       0.44250000
