20
Properties=species:S:1:pos:R:3 gdb_7348=T pbc="F F F"
C       -0.23220000       1.50070000      -0.04860000
C        0.15790000       0.03000000       0.06420000
N        0.67120000      -0.47030000      -1.20480000
C        0.69500000      -1.83690000      -1.42890000
O        0.17880000      -2.62860000      -0.65300000
N        1.30190000      -2.23210000      -2.60650000
C        1.51590000      -3.64840000      -2.83610000
C        1.82760000      -1.30760000      -3.58830000
H        0.62950000       2.12710000      -0.30940000
H       -0.99860000       1.64450000      -0.81600000
H       -0.62410000       1.86460000       0.90570000
H        0.89140000      -0.10620000       0.87320000
H       -0.70360000      -0.58790000       0.32290000
H        1.39940000       0.08530000      -1.62440000
H        1.07050000      -3.95980000      -3.78950000
H        2.58680000      -3.89380000      -2.86340000
H        1.04230000      -4.19640000      -2.02330000
H        2.85920000      -0.98380000      -3.37500000
H        1.83470000      -1.79370000      -4.56840000
H        1.19030000      -0.42270000      -3.66760000
