18
Properties=species:S:1:pos:R:3 gdb_91635=T pbc="F F F"
C       -0.21180000       1.54780000      -0.06140000
C        0.03940000       0.05130000       0.02300000
O        0.86860000      -0.39800000      -1.07970000
C        1.88650000      -1.19130000      -0.45960000
O        1.26550000      -1.74730000       0.67650000
C        0.83900000      -0.49830000       1.23970000
C        2.15100000       0.29000000       1.32570000
N        3.34120000      -0.57260000       1.48900000
C        2.89010000      -0.19300000       0.13500000
H        0.72170000       2.11510000      -0.04700000
H       -0.73460000       1.78540000      -0.99190000
H       -0.84110000       1.87880000       0.77210000
H       -0.91560000      -0.48740000      -0.03060000
H        2.23570000      -1.96520000      -1.14140000
H        0.27210000      -0.66780000       2.15370000
H        2.16800000       1.32050000       1.65620000
H        4.12490000       0.02820000       1.73790000
H        3.47870000       0.44840000      -0.50890000
