19
Properties=species:S:1:pos:R:3 gdb_70323=T pbc="F F F"
O       -0.08750000       1.38330000       0.04670000
C        0.01650000      -0.01660000      -0.00590000
C       -0.43030000      -0.71490000      -1.26550000
C       -1.29550000      -0.74240000      -0.01600000
C       -1.41230000      -1.98800000       0.86380000
C       -0.72720000      -1.78380000       2.21290000
O        0.49650000      -2.49610000       2.43540000
C        0.56510000      -1.08070000       2.21940000
C        1.11540000      -0.62350000       0.87210000
H        0.64280000       1.75310000      -0.46220000
H       -0.76790000      -0.09030000      -2.08550000
H        0.07530000      -1.62950000      -1.56210000
H       -2.16640000      -0.09630000      -0.04480000
H       -2.46500000      -2.24500000       1.00950000
H       -0.94270000      -2.85030000       0.37890000
H       -1.36780000      -1.72360000       3.09170000
H        0.85810000      -0.51130000       3.09980000
H        1.56510000      -1.49310000       0.38320000
H        1.90710000       0.11830000       1.01110000
