16
Properties=species:S:1:pos:R:3 gdb_70515=T pbc="F F F"
O        0.05110000       1.35160000      -0.10660000
C        0.01010000      -0.02820000      -0.05060000
C       -0.51550000      -0.78010000      -1.25410000
C       -1.33530000      -0.73690000       0.01810000
N       -1.41490000      -1.90040000       0.84770000
C       -0.29860000      -2.49730000       1.32810000
C        0.94550000      -1.94280000       1.28620000
C        1.13570000      -0.61220000       0.76470000
O        2.10480000       0.11160000       0.98240000
H        0.93760000       1.55930000       0.24190000
H       -0.86240000      -0.15410000      -2.06790000
H       -0.04790000      -1.71660000      -1.53660000
H       -2.22470000      -0.11740000       0.03340000
H       -2.27660000      -2.42060000       0.84530000
H       -0.46500000      -3.46100000       1.79970000
H        1.77830000      -2.43840000       1.76640000
