16
Properties=species:S:1:pos:R:3 gdb_43806=T pbc="F F F"
O       -0.04980000       0.13770000       0.42080000
C        0.01910000       1.27710000       0.08640000
O       -0.97850000       2.09240000      -0.40380000
C       -0.04550000       3.19480000      -0.60500000
C       -0.08880000       4.05300000      -1.81410000
C       -0.44810000       4.61350000      -0.44000000
C        1.06380000       2.36140000      -0.02050000
C        2.17130000       2.62630000       0.92630000
N        2.43950000       2.24640000      -0.46730000
H        0.85990000       4.33020000      -2.26110000
H       -0.90130000       3.89090000      -2.51350000
H       -1.49570000       4.81140000      -0.24200000
H        0.24430000       5.29220000       0.04730000
H        2.42100000       3.65370000       1.17540000
H        2.33420000       1.89920000       1.71740000
H        2.70220000       1.26470000      -0.53400000
