18
Properties=species:S:1:pos:R:3 gdb_45744=T pbc="F F F"
N       -0.16950000       1.26380000      -0.18360000
C       -0.01160000       0.00690000      -0.06620000
C        1.21240000      -0.90960000      -0.08780000
N        0.71460000      -2.27780000       0.10480000
C       -0.55370000      -2.15890000       0.21490000
N       -1.07410000      -0.87630000       0.13000000
C       -2.44260000      -0.45620000       0.21780000
C       -3.55990000      -1.28710000      -0.35230000
C       -3.41530000      -1.12960000       1.14740000
H        0.72580000       1.72950000      -0.31940000
H        1.75160000      -0.82860000      -1.03880000
H        1.92030000      -0.64440000       0.70610000
H       -1.22410000      -2.99780000       0.36840000
H       -2.49320000       0.61980000       0.10960000
H       -4.36920000      -0.77310000      -0.85840000
H       -3.30790000      -2.25030000      -0.78340000
H       -3.06730000      -1.98820000       1.71190000
H       -4.12450000      -0.50640000       1.68040000
