15
Properties=species:S:1:pos:R:3 gdb_12773=T pbc="F F F"
C       -0.00540000       1.39530000      -0.05230000
N       -0.05880000      -0.06030000      -0.06490000
C        0.60550000      -0.69100000      -0.91270000
O        1.41500000      -0.24150000      -1.96900000
C        1.47910000      -1.58850000      -2.50930000
C        2.18460000      -2.47170000      -1.52930000
C        0.72590000      -2.13260000      -1.29650000
O       -0.19890000      -3.11850000      -1.08570000
H        0.51930000       1.82830000      -0.91160000
H       -1.02680000       1.78840000      -0.02190000
H        0.49220000       1.72680000       0.86590000
H        1.37830000      -1.70670000      -3.57870000
H        2.31670000      -3.49940000      -1.85700000
H        2.97370000      -2.07480000      -0.89710000
H       -1.07640000      -2.72470000      -1.16260000
