20
Properties=species:S:1:pos:R:3 gdb_100546=T pbc="F F F"
C       -0.67370000       1.86120000      -0.28830000
C        0.02040000       0.50040000      -0.17740000
C       -0.98250000      -0.62200000       0.13970000
O       -1.54870000      -0.34860000       1.41240000
C        0.73810000       0.13510000      -1.47390000
O        0.29570000       0.38630000      -2.57360000
N        1.89250000      -0.63300000      -1.29460000
C        3.14660000      -0.12460000      -0.76290000
C        3.01650000      -0.55110000      -2.19560000
H        0.05510000       2.67240000      -0.37920000
H       -1.31220000       1.88460000      -1.17510000
H       -1.28430000       2.03800000       0.59900000
H        0.74810000       0.50930000       0.64160000
H       -1.74990000      -0.64740000      -0.64860000
H       -0.46150000      -1.59110000       0.13680000
H       -2.25380000      -0.98310000       1.56900000
H        3.21710000       0.94200000      -0.56270000
H        3.65480000      -0.76140000      -0.04400000
H        3.44080000      -1.49850000      -2.51470000
H        2.97520000       0.22140000      -2.95870000
