21
Properties=species:S:1:pos:R:3 gdb_110376=T pbc="F F F"
C       -0.33870000       1.14900000       0.19320000
O        0.50580000       0.05030000      -0.08220000
C        0.97490000      -0.57620000       1.07310000
C        0.07690000      -1.64800000       1.64080000
C        1.35260000      -2.00280000       0.84650000
C        1.95620000      -2.66750000       2.10260000
C        2.81090000      -1.81670000       3.09300000
C        1.51520000      -1.45550000       3.89520000
C        0.66720000      -2.31160000       2.90290000
H        0.18440000       1.92730000       0.76990000
H       -0.64490000       1.56870000      -0.76790000
H       -1.23320000       0.84600000       0.75620000
H        1.55760000       0.08370000       1.71800000
H       -0.95800000      -1.70260000       1.32280000
H        1.44370000      -2.36830000      -0.16950000
H        2.25420000      -3.70560000       1.95360000
H        3.51820000      -2.41760000       3.66980000
H        3.35990000      -0.97950000       2.65460000
H        1.51490000      -1.85360000       4.91280000
H        1.25940000      -0.39410000       3.94930000
H        0.04050000      -3.09380000       3.33240000
