18
Properties=species:S:1:pos:R:3 gdb_15225=T pbc="F F F"
C       -0.11550000       1.55880000       0.16400000
C       -0.01190000       0.06320000      -0.03980000
C        0.55530000      -0.58130000      -1.27680000
C        1.13900000       0.20080000      -2.43500000
O        2.22230000      -0.48360000      -3.04360000
C        1.32780000      -0.66930000       0.04250000
C        2.56250000       0.04500000       0.18650000
C        3.61360000       0.62590000       0.28310000
H        0.78370000       2.08440000      -0.16370000
H       -0.97180000       1.97030000      -0.38100000
H       -0.25580000       1.78610000       1.22590000
H       -0.82700000      -0.49210000       0.41740000
H        0.09760000      -1.51860000      -1.58090000
H        0.38060000       0.32180000      -3.21600000
H        1.43850000       1.20660000      -2.11430000
H        2.92930000      -0.51420000      -2.38850000
H        1.31380000      -1.63520000       0.53860000
H        4.53440000       1.14350000       0.39280000
