22
Properties=species:S:1:pos:R:3 gdb_75436=T pbc="F F F"
C        0.04480000       1.46760000       0.10050000
C       -0.00970000      -0.02250000      -0.07750000
N        0.05620000      -0.55960000      -1.22520000
C        0.04460000      -2.01230000      -1.32120000
C        0.39810000      -2.71270000      -0.00650000
C       -0.35870000      -2.07020000       1.16220000
C       -1.87280000      -2.30190000       1.07990000
C        0.18850000      -2.53200000       2.51060000
O       -0.12490000      -0.63690000       1.13410000
H        0.87550000       1.73950000       0.75980000
H        0.17150000       1.94690000      -0.86930000
H       -0.87360000       1.82860000       0.57490000
H       -0.94320000      -2.33300000      -1.67990000
H        0.75120000      -2.30580000      -2.10600000
H        0.17300000      -3.78340000      -0.05440000
H        1.47340000      -2.61400000       0.18210000
H       -2.10080000      -3.37060000       1.14480000
H       -2.37560000      -1.79120000       1.90590000
H       -2.28670000      -1.91940000       0.14350000
H        1.26060000      -2.32840000       2.57970000
H       -0.31450000      -2.00720000       3.32790000
H        0.02970000      -3.60710000       2.63860000
