21
Properties=species:S:1:pos:R:3 gdb_46904=T pbc="F F F"
O        0.00360000      -0.04530000       0.03900000
C       -0.01370000       1.16510000      -0.01530000
C       -1.34110000       1.91910000      -0.02110000
C       -1.54590000       2.81410000       1.22600000
C       -0.79480000       4.12880000       1.14780000
C       -0.03000000       4.68470000       2.32400000
C        0.71760000       4.14940000       1.12730000
C        1.50610000       2.85580000       1.18460000
C        1.29210000       1.95500000      -0.05680000
H       -1.40150000       2.54380000      -0.92200000
H       -2.12550000       1.16050000      -0.08080000
H       -2.61700000       3.01920000       1.33160000
H       -1.26140000       2.25390000       2.12400000
H       -1.27410000       4.86330000       0.50490000
H       -0.04230000       5.75530000       2.49680000
H       -0.00960000       4.09060000       3.23290000
H        1.15890000       4.89660000       0.47190000
H        2.57370000       3.09010000       1.26120000
H        1.26150000       2.28840000       2.08980000
H        2.09500000       1.21810000      -0.13810000
H        1.31090000       2.58090000      -0.95880000
