19
Properties=species:S:1:pos:R:3 gdb_85755=T pbc="F F F"
O       -0.05720000       1.44560000       0.01950000
C       -0.00370000       0.02620000       0.00040000
C        0.67780000      -0.58310000       1.24840000
C        0.00540000      -1.96900000       1.44860000
C        0.05800000      -2.45860000       2.82140000
C        0.10030000      -2.85520000       3.95570000
C       -1.41030000      -1.77810000       0.88610000
C       -2.16370000      -0.54250000       1.29690000
C       -1.40270000      -0.55840000      -0.00600000
H        0.84330000       1.77860000      -0.04870000
H        0.51630000      -0.31640000      -0.90910000
H        1.76290000      -0.66640000       1.14670000
H        0.47890000       0.06360000       2.10670000
H        0.51620000      -2.69930000       0.80640000
H        0.13440000      -3.20850000       4.95630000
H       -1.96940000      -2.66960000       0.62710000
H       -3.24490000      -0.58570000       1.22900000
H       -1.80030000       0.06200000       2.12010000
H       -1.95910000      -0.53330000      -0.93580000
