18
Properties=species:S:1:pos:R:3 gdb_69587=T pbc="F F F"
O       -0.05720000       1.41940000       0.06300000
C       -0.00280000       0.02600000       0.05930000
C       -0.40390000      -0.75080000      -1.17560000
C       -1.27380000      -0.79090000       0.07410000
C       -1.05150000      -1.91980000       1.05080000
C       -2.14920000      -2.45090000       1.90560000
N       -1.58720000      -3.28290000       0.83110000
C        0.36190000      -1.77620000       1.51260000
C        0.93210000      -0.68700000       0.99260000
H        0.62340000       1.74590000      -0.53510000
H       -0.80720000      -0.16880000      -1.99850000
H        0.16900000      -1.62780000      -1.45810000
H       -2.23590000      -0.29430000       0.03230000
H       -1.93570000      -2.79690000       2.91350000
H       -3.13850000      -2.01750000       1.77620000
H       -2.20550000      -3.27020000       0.02290000
H        0.83190000      -2.51130000       2.15440000
H        1.94610000      -0.34660000       1.16900000
