15
Properties=species:S:1:pos:R:3 gdb_43156=T pbc="F F F"
O        0.00080000      -0.05910000       0.14420000
C       -0.00420000       1.12940000       0.07210000
C       -1.06960000       2.25800000      -0.03350000
C       -0.68250000       3.06020000       1.22400000
O        0.77550000       3.01510000       1.14840000
C        1.01680000       2.29270000      -0.07020000
C       -0.04470000       2.86680000      -1.02260000
C       -0.07980000       3.03310000      -2.46830000
O       -0.08120000       4.15900000      -1.56100000
H       -2.11880000       2.08930000      -0.25800000
H       -1.01860000       4.10180000       1.18490000
H       -1.02000000       2.59600000       2.15580000
H        2.07900000       2.20160000      -0.27520000
H        0.83010000       2.91420000      -3.05350000
H       -1.01120000       2.87350000      -3.00840000
