24
Properties=species:S:1:pos:R:3 gdb_62788=T pbc="F F F"
C        2.01680000       2.24860000       0.45770000
C        1.64650000       0.78180000       0.57190000
C        1.04400000       0.45260000       1.92950000
C        1.17520000      -0.10400000      -0.52210000
N        2.54270000      -0.31860000       0.13810000
C        3.17370000       0.06720000      -1.17490000
C        1.80170000       0.07540000      -1.91410000
C        1.62540000      -1.21580000      -2.72420000
C        1.39630000       1.27670000      -2.76870000
H        2.50150000       2.52060000      -0.47810000
H        1.12000000       2.86940000       0.55870000
H        2.69660000       2.51880000       1.27430000
H        0.10670000       0.99890000       2.08330000
H        0.84440000      -0.61800000       2.01680000
H        1.73600000       0.73160000       2.73120000
H        0.35740000      -0.80040000      -0.34230000
H        3.73520000       1.00550000      -1.14860000
H        3.84720000      -0.72660000      -1.50680000
H        1.89770000      -2.09480000      -2.13190000
H        0.58550000      -1.33600000      -3.04930000
H        2.25630000      -1.19940000      -3.62000000
H        2.02010000       1.33580000      -3.66830000
H        0.35580000       1.17710000      -3.09940000
H        1.48200000       2.22700000      -2.23950000
