15
Properties=species:S:1:pos:R:3 gdb_2306=T pbc="F F F"
C        0.11030000       1.52020000       0.06720000
C        0.04350000       0.06710000       0.03480000
C       -0.01510000      -1.13610000       0.01680000
C       -0.04220000      -2.57270000      -0.02920000
O       -0.51390000      -3.27460000       1.13800000
C       -1.30220000      -3.35260000      -0.04720000
C       -2.66410000      -2.71340000      -0.01630000
H        1.14720000       1.87130000       0.02790000
H       -0.42440000       1.96330000      -0.78030000
H       -0.33910000       1.91340000       0.98560000
H        0.83480000      -3.03310000      -0.48490000
H       -1.25380000      -4.32610000      -0.54060000
H       -2.61240000      -1.71070000       0.41270000
H       -3.07280000      -2.64200000      -1.03000000
H       -3.35280000      -3.31760000       0.58320000
