21
Properties=species:S:1:pos:R:3 gdb_40123=T pbc="F F F"
C       -0.10030000       1.50840000       0.01710000
C        1.25950000       0.85560000      -0.07880000
C        0.01300000       0.00430000       0.01990000
C       -0.24290000      -0.73000000       1.33420000
C        0.12080000      -2.19350000       1.25740000
C        0.10270000      -2.87630000       0.11100000
C       -0.27940000      -2.26110000      -1.18330000
C       -1.63710000      -1.57580000      -1.29990000
C       -0.38370000      -0.74830000      -1.21890000
H       -0.36600000       2.00230000       0.94670000
H       -0.50120000       1.99090000      -0.86840000
H        1.78050000       0.89590000      -1.03000000
H        1.91430000       0.90660000       0.78480000
H        0.31620000      -0.24190000       2.14080000
H       -1.30250000      -0.62820000       1.61510000
H        0.37850000      -2.69480000       2.18610000
H        0.36110000      -3.93200000       0.10180000
H        0.08400000      -2.76160000      -2.07500000
H       -2.15240000      -1.62570000      -2.25330000
H       -2.28890000      -1.62900000      -0.43510000
H       -0.07530000      -0.27070000      -2.14480000
