21
Properties=species:S:1:pos:R:3 gdb_22524=T pbc="F F F"
C        0.15200000       1.52420000       0.16880000
C       -0.02620000       0.01880000      -0.04680000
C        0.62870000      -0.50680000      -1.33280000
C        0.00330000       0.06870000      -2.60690000
N        2.13500000      -0.40080000      -1.28930000
C        2.30320000      -1.86780000      -1.51450000
C        0.80690000      -2.01800000      -1.38410000
N       -0.03890000      -2.95310000      -1.30960000
O        0.59080000      -4.21140000      -1.39090000
H        1.21350000       1.78900000       0.13310000
H       -0.37500000       2.11700000      -0.58560000
H       -0.23630000       1.82190000       1.14740000
H        0.41900000      -0.51920000       0.79670000
H       -1.08990000      -0.24850000      -0.06410000
H        0.15390000       1.15210000      -2.65860000
H        0.44820000      -0.38040000      -3.50050000
H       -1.07320000      -0.12660000      -2.63320000
H        2.50900000       0.15940000      -2.04770000
H        2.68860000      -2.16010000      -2.50020000
H        2.90510000      -2.37070000      -0.74990000
H       -0.15430000      -4.81650000      -1.31100000
