15
Properties=species:S:1:pos:R:3 gdb_7760=T pbc="F F F"
C        0.43080000       1.34870000      -0.19540000
C       -0.17100000      -0.01930000       0.13500000
O       -0.04820000      -0.88420000      -1.02910000
C        0.99580000      -1.72000000      -1.20690000
O        1.21790000      -2.23180000      -2.27320000
N        1.75720000      -1.97570000      -0.07800000
C        1.37450000      -1.57380000       1.20000000
C        0.42870000      -0.65160000       1.35690000
H        1.51330000       1.27070000      -0.33280000
H       -0.01550000       1.74850000      -1.11010000
H        0.23990000       2.04880000       0.62410000
H       -1.25430000       0.08850000       0.25460000
H        2.44950000      -2.69510000      -0.20480000
H        1.88690000      -2.06610000       2.01760000
H        0.10300000      -0.33050000       2.33680000
