20
Properties=species:S:1:pos:R:3 gdb_76868=T pbc="F F F"
C        0.49220000       1.61870000      -0.09640000
C        0.11280000       0.14640000       0.01340000
C        0.70380000      -0.79670000      -1.08700000
O        1.44470000      -0.23240000      -2.13780000
C        1.47840000      -1.51190000       0.05720000
C        2.92870000      -1.14720000       0.24580000
C        3.07500000      -0.36880000       1.31880000
C        1.73900000      -0.10210000       1.98200000
N        0.74660000      -0.70380000       1.07880000
H        1.57400000       1.77910000      -0.13800000
H        0.06010000       2.02910000      -1.01400000
H        0.09670000       2.19610000       0.74500000
H       -0.97960000       0.07830000       0.08360000
H       -0.05180000      -1.42610000      -1.56210000
H        2.20980000       0.21130000      -1.75410000
H        1.31880000      -2.59700000       0.12170000
H        3.72770000      -1.53290000      -0.37670000
H        4.01630000      -0.00540000       1.71640000
H        1.69930000      -0.56940000       2.97810000
H        1.54400000       0.96470000       2.13880000
