18
Properties=species:S:1:pos:R:3 gdb_105945=T pbc="F F F"
C        0.11820000       1.30710000       0.28150000
O       -0.01240000      -0.01570000      -0.22610000
C       -1.27950000      -0.50520000      -0.14860000
C       -1.75950000      -1.93170000      -0.09270000
C       -2.16930000      -0.89790000       0.99620000
N       -3.40870000      -0.28140000       0.43940000
C       -4.16540000      -1.44510000      -0.16180000
C       -2.94050000      -1.69810000      -1.06200000
C       -2.61550000      -0.17440000      -0.88240000
H        1.17090000       1.57950000       0.18450000
H       -0.49210000       2.01810000      -0.29100000
H       -0.18040000       1.35720000       1.33630000
H       -1.20970000      -2.83380000       0.13630000
H       -1.98610000      -1.03340000       2.05390000
H       -4.48090000      -2.21500000       0.54850000
H       -5.03010000      -1.06410000      -0.71320000
H       -2.96680000      -2.22730000      -2.01370000
H       -2.86010000       0.62680000      -1.57710000
