16
Properties=species:S:1:pos:R:3 gdb_7656=T pbc="F F F"
N       -0.06720000       1.37240000       0.19530000
C        0.03150000      -0.01210000       0.18690000
O        1.09310000      -0.60670000       0.15920000
N       -1.18230000      -0.66180000       0.18840000
C       -2.46210000      -0.22230000      -0.39500000
C       -2.81080000      -1.70750000      -0.64890000
O       -3.18760000      -1.93610000      -1.98220000
C       -1.34650000      -2.05640000      -0.23810000
H        0.80270000       1.82570000       0.42980000
H       -0.88230000       1.78580000       0.62200000
H       -3.11830000       0.32780000       0.28780000
H       -2.35220000       0.33520000      -1.33220000
H       -3.55440000      -2.09880000       0.05630000
H       -3.35690000      -2.87690000      -2.09550000
H       -0.71490000      -2.32050000      -1.09330000
H       -1.21120000      -2.79290000       0.55940000
