15
Properties=species:S:1:pos:R:3 gdb_11442=T pbc="F F F"
O        0.07340000       1.34050000       0.19930000
C        0.03640000      -0.05850000       0.04500000
C       -1.39480000      -0.56690000      -0.11270000
C       -1.51160000      -2.10750000      -0.10800000
N       -1.88790000      -2.33410000       1.27200000
C       -2.40220000      -1.20560000       1.86640000
O       -2.96320000      -1.10740000       2.92020000
O       -2.15290000      -0.13880000       1.03770000
H       -0.50950000       1.55210000       0.93840000
H        0.60890000      -0.29830000      -0.85810000
H        0.50940000      -0.58260000       0.89250000
H       -1.85610000      -0.10890000      -0.99070000
H       -2.27020000      -2.46290000      -0.81720000
H       -0.55710000      -2.58390000      -0.35700000
H       -2.19590000      -3.22840000       1.61540000
