20
Properties=species:S:1:pos:R:3 gdb_88485=T pbc="F F F"
C        3.12350000      -0.74070000      -0.31420000
C        1.64710000      -1.01040000      -0.12390000
C        1.16890000      -1.96810000       0.91490000
N        0.89250000      -0.54120000       1.04230000
C        1.52430000       0.27020000       2.06550000
C        1.08260000       0.05700000       3.49830000
C        2.50190000      -0.26260000       3.11480000
C        1.72420000       1.63240000       1.63480000
C        1.89980000       2.76650000       1.27550000
H        3.69270000      -0.89390000       0.60530000
H        3.52790000      -1.41270000      -1.07890000
H        3.29180000       0.28820000      -0.64660000
H        1.06530000      -0.93370000      -1.04150000
H        0.29780000      -2.59750000       0.75090000
H        1.93460000      -2.41970000       1.54280000
H        0.88460000       0.93250000       4.10460000
H        0.40640000      -0.77550000       3.66090000
H        2.78990000      -1.30580000       3.06860000
H        3.29130000       0.40660000       3.43680000
H        2.04590000       3.76950000       0.95950000
