19
Properties=species:S:1:pos:R:3 gdb_74059=T pbc="F F F"
C       -0.10240000       1.44710000       0.06110000
C       -0.00860000      -0.04010000      -0.01220000
C       -0.05250000      -0.80020000      -1.12260000
C        0.11050000      -2.21370000      -0.77160000
O        0.30280000      -3.17120000      -1.49190000
C        0.05900000      -2.33050000       0.77050000
C       -1.26420000      -2.98250000       1.19270000
O        1.16200000      -3.10370000       1.21440000
C        0.18250000      -0.86980000       1.24120000
H        0.79640000       1.86740000       0.52910000
H       -0.22670000       1.90090000      -0.92470000
H       -0.94720000       1.74750000       0.69370000
H       -0.14130000      -0.44390000      -2.14150000
H       -1.36550000      -3.95980000       0.71090000
H       -1.27450000      -3.12210000       2.27750000
H       -2.12520000      -2.36870000       0.90650000
H        1.27270000      -3.79980000       0.55130000
H        1.17970000      -0.70290000       1.66470000
H       -0.54350000      -0.60060000       2.01730000
