17
Properties=species:S:1:pos:R:3 gdb_31279=T pbc="F F F"
C        0.58700000       0.59190000      -0.52090000
O       -0.15460000      -0.34480000       0.26990000
C        0.50000000      -0.83480000       1.33630000
C        0.84710000      -2.10110000       1.72030000
O        0.70540000      -3.30190000       1.10990000
C        0.20900000      -3.29390000      -0.21940000
C        1.44110000      -1.97470000       3.02160000
C        1.41950000      -0.65370000       3.32220000
O        0.84670000       0.06000000       2.31530000
H        1.49950000       0.12840000      -0.91550000
H       -0.06660000       0.88340000      -1.34460000
H        0.85320000       1.47540000       0.06750000
H        0.87920000      -2.74270000      -0.89180000
H        0.16390000      -4.33880000      -0.53180000
H       -0.78920000      -2.84720000      -0.27510000
H        1.82830000      -2.78140000       3.62300000
H        1.76010000      -0.08070000       4.16810000
