17
Properties=species:S:1:pos:R:3 gdb_51821=T pbc="F F F"
O       -0.17750000      -0.00680000       0.25630000
C       -0.05740000       1.18070000       0.05000000
N        1.12570000       1.82080000      -0.17370000
C        2.41040000       1.14540000      -0.15500000
C        2.92120000       0.88160000      -1.57510000
O        4.21360000       0.26530000      -1.55200000
C        5.05350000       0.69640000      -0.57980000
N        4.82760000       1.46180000       0.40020000
C        3.46990000       1.95300000       0.60400000
H       -0.91410000       1.88270000       0.02450000
H        1.10590000       2.81720000      -0.32990000
H        2.24670000       0.18380000       0.33830000
H        2.26150000       0.19880000      -2.11370000
H        2.98750000       1.82370000      -2.13670000
H        6.04320000       0.27200000      -0.73620000
H        3.43020000       3.00910000       0.29610000
H        3.25490000       1.94070000       1.67780000
