18
Properties=species:S:1:pos:R:3 gdb_67247=T pbc="F F F"
C        0.17320000       1.57600000       0.15510000
C       -0.03530000       0.11250000      -0.03110000
C        0.43570000      -0.86750000      -1.05350000
N        0.89290000      -0.97180000       0.38340000
C       -0.23780000      -1.66730000       1.09340000
C       -1.24480000      -0.88350000       0.23720000
C       -0.94840000      -1.44620000      -1.15490000
C       -1.81840000      -1.56440000      -2.31840000
O       -1.32020000      -2.72670000      -1.62490000
H        1.20780000       1.83810000      -0.08610000
H       -0.48970000       2.15600000      -0.49590000
H       -0.01990000       1.87880000       1.19000000
H        1.20720000      -0.77360000      -1.80620000
H       -0.24330000      -2.75960000       1.01350000
H       -0.21860000      -1.36340000       2.14250000
H       -2.26050000      -0.65230000       0.55210000
H       -2.88860000      -1.38680000      -2.21910000
H       -1.41600000      -1.41490000      -3.31970000
