17
Properties=species:S:1:pos:R:3 gdb_60738=T pbc="F F F"
C        0.33780000       1.37010000      -0.12810000
N       -0.02420000      -0.04230000      -0.04010000
C       -0.10620000      -0.61830000       1.22390000
O        0.12530000      -0.01660000       2.24700000
C       -0.26210000      -0.81670000      -1.18500000
N       -0.31370000      -2.08610000      -1.12770000
C       -0.45270000      -0.03520000      -2.45980000
C        0.54000000      -0.13800000      -3.54730000
O       -0.70570000      -0.83050000      -3.60870000
H        1.11190000       1.52640000      -0.88320000
H       -0.52620000       2.00080000      -0.36390000
H        0.71860000       1.65990000       0.85080000
H       -0.40880000      -1.67160000       1.17320000
H       -0.55230000      -2.44620000      -2.05250000
H       -1.05260000       0.87090000      -2.39450000
H        0.65540000       0.68370000      -4.25150000
H        1.41350000      -0.77010000      -3.40010000
