22
Properties=species:S:1:pos:R:3 gdb_15707=T pbc="F F F"
C       -0.56770000       1.44140000      -0.06190000
C       -0.02050000       0.01500000       0.00910000
C        1.02270000      -0.32000000      -1.08360000
C        1.86880000      -1.49630000      -0.52210000
C        1.37300000      -1.72090000       0.93110000
C        0.66620000      -0.41000000       1.33120000
C        1.65070000       0.62470000       1.87810000
O        2.23060000       0.08810000       3.06170000
H        0.23250000       2.18700000       0.00000000
H       -1.09250000       1.60780000      -1.00880000
H       -1.27710000       1.64240000       0.74840000
H       -0.86770000      -0.67250000      -0.12070000
H        0.54160000      -0.56390000      -2.03550000
H        1.65590000       0.55420000      -1.27500000
H        1.75820000      -2.40350000      -1.12260000
H        2.93390000      -1.24650000      -0.53870000
H        0.64820000      -2.54180000       0.95700000
H        2.17630000      -1.97710000       1.62470000
H       -0.07510000      -0.58720000       2.11900000
H        2.42750000       0.85240000       1.13000000
H        1.12350000       1.56500000       2.09760000
H        2.86220000       0.72790000       3.40210000
