16
Properties=species:S:1:pos:R:3 gdb_44868=T pbc="F F F"
O       -0.03020000       0.03210000       0.03630000
C        0.01880000       1.22250000       0.01990000
O       -1.09790000       2.02840000       0.05780000
C       -0.60720000       3.40480000       0.00970000
C        0.58420000       3.26240000      -0.94810000
C        1.21890000       2.18700000      -0.04340000
N        1.24400000       2.73750000       1.35120000
C        1.40360000       4.19710000       1.46600000
C        0.04100000       3.61450000       1.37490000
H       -1.43580000       4.05240000      -0.26800000
H        0.27160000       2.86790000      -1.91640000
H        1.17210000       4.16470000      -1.10540000
H        2.15690000       1.71770000      -0.32800000
H        1.76130000       4.50190000       2.44480000
H        1.81580000       4.77680000       0.64770000
H       -0.60050000       3.54380000       2.24750000
