19
Properties=species:S:1:pos:R:3 gdb_67794=T pbc="F F F"
C       -0.03720000       1.53750000       0.01080000
C       -0.03190000       0.02920000      -0.06780000
C        0.86760000      -0.66240000      -1.01380000
C        0.35810000      -1.83650000      -1.41340000
C       -0.91540000      -2.15890000      -0.63350000
C       -0.34490000      -2.94670000       0.54650000
C       -0.03990000      -2.11870000       1.55740000
C       -0.48500000      -0.74480000       1.27200000
C       -1.28800000      -0.79110000       0.00160000
H        0.93460000       1.92400000       0.33800000
H       -0.25870000       1.98010000      -0.96740000
H       -0.79130000       1.89810000       0.71740000
H        1.83560000      -0.26580000      -1.30020000
H        0.85580000      -2.56280000      -2.04580000
H       -1.70370000      -2.65940000      -1.19990000
H       -0.06270000      -3.99040000       0.47020000
H        0.50600000      -2.39340000       2.45250000
H       -0.74560000      -0.07080000       2.08080000
H       -2.28050000      -0.36360000      -0.09430000
