14
Properties=species:S:1:pos:R:3 gdb_48531=T pbc="F F F"
O       -0.62730000       0.65140000      -0.55090000
C        0.19300000       0.94970000       0.28030000
C        1.31450000       1.86830000       0.04070000
C        1.76760000       3.04950000       0.90640000
N        2.62410000       1.85440000       0.74180000
C        3.30890000       2.02730000      -0.60250000
C        1.99720000       2.57100000      -1.19190000
C        1.81340000       3.86270000      -0.36820000
O        1.58610000       5.00560000      -0.63000000
H        0.17360000       0.54770000       1.31620000
H        1.45540000       3.31720000       1.90700000
H        4.18130000       2.68820000      -0.58800000
H        3.58450000       1.03560000      -0.96390000
H        1.71630000       2.52140000      -2.23850000
