17
Properties=species:S:1:pos:R:3 gdb_74078=T pbc="F F F"
C        0.04380000       1.49990000       0.08460000
C       -0.01020000       0.01490000      -0.03120000
C        0.00140000      -0.73690000      -1.14570000
C       -0.07570000      -2.18150000      -0.81240000
O       -0.14910000      -3.12090000      -1.56850000
C       -0.08610000      -2.27210000       0.72280000
C       -0.70070000      -3.45400000       1.40740000
O        1.13600000      -1.72390000       1.26910000
C       -0.03420000      -0.88310000       1.18330000
H        0.93500000       1.80880000       0.64520000
H        0.06260000       1.98400000      -0.89430000
H       -0.82110000       1.87970000       0.64270000
H        0.07790000      -0.37940000      -2.16500000
H       -0.22620000      -4.37510000       1.05650000
H       -0.57500000      -3.37840000       2.48990000
H       -1.76790000      -3.52280000       1.17490000
H       -0.44240000      -0.54530000       2.13180000
