17
Properties=species:S:1:pos:R:3 gdb_50215=T pbc="F F F"
O       -0.03820000      -0.02400000       0.04230000
C        0.02330000       1.18750000       0.07390000
N        1.17700000       1.90090000       0.11320000
C        2.50350000       1.29280000      -0.03070000
C        3.32990000       2.42510000      -0.63360000
C        2.46230000       3.54760000      -1.03130000
C        1.31510000       3.34090000      -0.00570000
C        2.33210000       3.85490000       1.04660000
N        3.47100000       3.73830000       0.07220000
H       -0.86910000       1.84530000       0.08130000
H        2.89580000       0.94370000       0.93160000
H        2.44590000       0.42860000      -0.69900000
H        4.21460000       2.17300000      -1.20570000
H        2.46780000       4.10040000      -1.96250000
H        0.35510000       3.84300000      -0.11450000
H        2.20010000       4.91180000       1.28880000
H        2.43300000       3.27450000       1.96930000
