16
Properties=species:S:1:pos:R:3 gdb_13160=T pbc="F F F"
N        0.09970000       1.44290000       0.58800000
C        0.08610000       0.18760000       0.29740000
C       -1.27420000      -0.45360000       0.34580000
O       -1.50250000      -1.61320000       0.10540000
N        1.13440000      -0.60820000      -0.02220000
C        1.27040000      -1.97680000      -0.54750000
C        2.78400000      -1.68980000      -0.75990000
C        2.52580000      -0.23790000      -0.26420000
H        1.04350000       1.83250000       0.54170000
H       -2.05780000       0.27480000       0.63060000
H        1.02430000      -2.75810000       0.17580000
H        0.69660000      -2.16030000      -1.46040000
H        3.44660000      -2.26930000      -0.11660000
H        3.12910000      -1.76750000      -1.79090000
H        2.64570000       0.54470000      -1.02540000
H        3.07140000       0.06720000       0.63700000
