21
Properties=species:S:1:pos:R:3 gdb_77248=T pbc="F F F"
C       -1.70570000       0.71820000      -1.47020000
C       -0.80210000      -0.31730000      -0.83450000
C        0.60140000      -0.63470000      -1.34770000
C        1.22950000       0.06600000      -2.54060000
C        0.81650000      -0.59370000      -3.84080000
O        0.33480000      -0.01960000      -4.78280000
C        0.42090000       0.01560000      -0.00230000
C        0.84970000       1.43790000       0.28140000
O        0.71120000      -0.86730000       1.05790000
H       -1.16010000       1.59030000      -1.83820000
H       -2.24420000       0.29250000      -2.32370000
H       -2.45260000       1.07790000      -0.75370000
H       -1.33030000      -1.19540000      -0.47090000
H        0.87350000      -1.68430000      -1.27030000
H        0.97570000       1.12580000      -2.60480000
H        2.32470000      -0.01050000      -2.46630000
H        0.99020000      -1.69540000      -3.86920000
H        0.65640000       2.11380000      -0.55390000
H        0.30980000       1.83170000       1.15150000
H        1.91960000       1.46910000       0.51040000
H        0.15060000      -0.62460000       1.80380000
