19
Properties=species:S:1:pos:R:3 gdb_100506=T pbc="F F F"
C       -0.11760000       1.51550000       0.07770000
C        0.03390000      -0.01990000      -0.00730000
C        0.78180000      -0.44580000      -1.27070000
O       -0.00510000      -0.04590000      -2.38370000
C        0.74730000      -0.53100000       1.22400000
O        1.92210000      -0.84250000       1.23040000
C       -0.05150000      -0.65340000       2.52100000
N        0.74860000      -0.93990000       3.58870000
N       -1.31870000      -0.47190000       2.47740000
H        0.86020000       1.99910000       0.18000000
H       -0.58340000       1.87350000      -0.84240000
H       -0.74210000       1.79580000       0.92770000
H       -0.97180000      -0.45000000      -0.01840000
H        1.77600000       0.02270000      -1.28700000
H        0.93580000      -1.53530000      -1.26130000
H        0.49150000      -0.23650000      -3.18430000
H        1.69220000      -1.22100000       3.36680000
H        0.34100000      -1.27580000       4.44450000
H       -1.75040000      -0.59290000       3.39650000
