18
Properties=species:S:1:pos:R:3 gdb_89199=T pbc="F F F"
C       -0.81510000       1.27950000      -0.02070000
C       -0.06120000      -0.04130000       0.02420000
C        1.08540000      -0.29430000      -1.01140000
C        2.08160000      -0.62430000       0.13630000
O        2.80130000      -1.79270000      -0.01820000
C        0.94300000      -0.26840000       1.17210000
O        1.68700000       0.95250000       1.51300000
C        2.76040000       0.58920000       0.72600000
N        3.91950000       1.05940000       0.63340000
H       -0.12730000       2.12550000       0.05980000
H       -1.36870000       1.37650000      -0.96020000
H       -1.53480000       1.35310000       0.80160000
H       -0.76640000      -0.87920000       0.00560000
H        0.92170000      -1.17110000      -1.64050000
H        1.36960000       0.54950000      -1.64420000
H        3.62620000      -1.70600000       0.47390000
H        0.67570000      -0.82480000       2.07000000
H        4.05370000       1.86650000       1.24480000
