20
Properties=species:S:1:pos:R:3 gdb_93225=T pbc="F F F"
C       -0.02540000       1.55890000      -0.03780000
C        0.10460000       0.03550000       0.00360000
C        0.76680000      -0.53060000      -1.26440000
C        0.92920000      -2.03790000      -1.14800000
O        1.60150000      -2.51080000      -2.30430000
C        1.74830000      -2.34190000       0.10690000
O        1.19460000      -1.76440000       1.29260000
C        0.79630000      -0.45050000       1.26780000
N        0.89910000       0.27570000       2.29880000
H        0.96010000       2.03180000      -0.08580000
H       -0.59650000       1.86350000      -0.92070000
H       -0.52530000       1.93120000       0.85710000
H       -0.90710000      -0.39690000       0.05620000
H        0.16760000      -0.28160000      -2.14550000
H        1.75790000      -0.08180000      -1.41120000
H       -0.06510000      -2.50320000      -1.05170000
H        1.60180000      -3.47330000      -2.28530000
H        1.79980000      -3.41740000       0.30320000
H        2.77170000      -1.97230000      -0.04780000
H        1.35600000      -0.25000000       3.04710000
