15
Properties=species:S:1:pos:R:3 gdb_4343=T pbc="F F F"
C        0.01250000       1.47710000       0.07490000
C        0.01680000      -0.02600000      -0.01080000
C       -0.12770000      -0.69710000      -1.22160000
C       -0.11370000      -2.09350000      -1.22200000
C        0.04190000      -2.77940000      -0.03090000
C        0.17920000      -2.01010000       1.13030000
O        0.33320000      -2.64440000       2.31260000
N        0.16850000      -0.68510000       1.15130000
H        0.95020000       1.83760000       0.51020000
H       -0.11580000       1.93640000      -0.90790000
H       -0.79510000       1.82000000       0.72990000
H       -0.24840000      -0.14070000      -2.14340000
H       -0.22450000      -2.64020000      -2.15300000
H        0.05990000      -3.86010000       0.02650000
H        0.40910000      -1.94470000       2.97660000
