16
Properties=species:S:1:pos:R:3 gdb_76280=T pbc="F F F"
C        0.12580000       1.57020000       0.06170000
C       -0.03550000       0.04520000      -0.04350000
C        0.73700000      -0.58260000      -1.22400000
O        1.00380000       0.29330000      -2.28530000
C        2.03050000      -1.09760000      -0.58690000
O        3.05740000      -1.33610000      -1.17500000
N        1.78900000      -1.22010000       0.76650000
C        0.59200000      -0.62400000       1.18510000
O        0.19150000      -0.61990000       2.31860000
H        1.18020000       1.85730000       0.11280000
H       -0.30710000       2.05380000      -0.81530000
H       -0.37730000       1.93170000       0.96150000
H       -1.09870000      -0.20490000      -0.06770000
H        0.19150000      -1.47430000      -1.57840000
H        1.85550000       0.01900000      -2.65350000
H        2.45590000      -1.60930000       1.41920000
