22
Properties=species:S:1:pos:R:3 gdb_118868=T pbc="F F F"
C        0.02870000       1.64340000       0.07820000
C        0.03250000       0.11560000       0.01290000
C       -1.37060000      -0.45820000      -0.23610000
C       -2.03920000       0.00250000      -1.52720000
O       -3.24190000      -0.74050000      -1.66710000
C        1.11560000      -0.57250000      -0.87930000
N        1.63690000      -1.40200000       0.26540000
C        2.15990000      -0.43010000       1.24130000
C        0.70000000      -0.62900000       1.18110000
H        1.00690000       2.03690000       0.36820000
H       -0.22400000       2.08440000      -0.89200000
H       -0.70580000       2.00330000       0.80810000
H       -1.31480000      -1.55280000      -0.26060000
H       -2.02540000      -0.19810000       0.60570000
H       -2.24760000       1.08220000      -1.48870000
H       -1.36550000      -0.16860000      -2.38330000
H       -3.69250000      -0.43640000      -2.46010000
H        0.70910000      -1.21920000      -1.66000000
H        1.87580000       0.08210000      -1.32040000
H        2.69190000      -0.90040000       2.06310000
H        2.61460000       0.48980000       0.87950000
H        0.15330000      -1.12720000       1.97770000
