17
Properties=species:S:1:pos:R:3 gdb_45691=T pbc="F F F"
O       -0.03270000      -0.01010000       0.40660000
C       -0.00100000       1.14470000       0.05670000
C       -1.30950000       1.89100000      -0.28930000
N       -1.22700000       3.32150000      -0.58870000
C       -0.10790000       3.65790000      -1.06850000
N        0.47210000       4.87790000      -1.38710000
C        1.84340000       4.32700000      -1.22450000
C        1.20170000       2.90280000      -1.21580000
C        1.31580000       1.92760000      -0.04880000
H       -1.76970000       1.34150000      -1.12340000
H       -1.98610000       1.74160000       0.55970000
H        0.15680000       5.75690000      -0.99740000
H        2.51900000       4.56360000      -2.05000000
H        2.31610000       4.58900000      -0.27110000
H        1.31130000       2.39450000      -2.17730000
H        1.43220000       2.48540000       0.89100000
H        2.14220000       1.21750000      -0.11990000
