23
Properties=species:S:1:pos:R:3 gdb_100053=T pbc="F F F"
C        0.26110000       1.49090000       0.08670000
C       -0.01220000      -0.02560000       0.07410000
C        0.46570000      -0.64250000       1.40190000
C       -1.52440000      -0.26850000      -0.08470000
O       -2.21120000       0.32020000       1.01000000
C        0.67760000      -0.63930000      -1.16100000
C        2.22250000      -0.71910000      -1.20510000
O        2.19370000      -2.15190000      -1.35920000
C        0.75400000      -2.17740000      -1.33040000
H        1.33010000       1.69600000       0.20710000
H       -0.06810000       1.95900000      -0.84810000
H       -0.27400000       1.97000000       0.90960000
H       -0.10220000      -0.21330000       2.23000000
H        0.31780000      -1.72660000       1.42810000
H        1.52640000      -0.44410000       1.58030000
H       -1.86210000       0.16830000      -1.03890000
H       -1.71840000      -1.35250000      -0.13040000
H       -3.14950000       0.13700000       0.91200000
H        0.27230000      -0.15250000      -2.05380000
H        2.69730000      -0.22420000      -2.06160000
H        2.74840000      -0.41740000      -0.29130000
H        0.37230000      -2.77830000      -0.49580000
H        0.33240000      -2.57080000      -2.26430000
