14
Properties=species:S:1:pos:R:3 gdb_11209=T pbc="F F F"
O       -0.23650000       0.44140000       1.03810000
C        0.47260000       0.76130000       0.12100000
C        1.15980000       2.12300000      -0.00980000
C        1.41360000       2.80590000       1.33230000
C        2.89040000       2.50600000       1.60170000
O        3.51280000       2.74880000       2.59840000
C        3.43400000       1.82320000       0.34260000
O        2.43140000       1.95020000      -0.65150000
H        0.69100000       0.07910000      -0.72980000
H        0.54500000       2.72350000      -0.69200000
H        1.27170000       3.88940000       1.28670000
H        0.78060000       2.40740000       2.12850000
H        4.35410000       2.30030000      -0.00640000
H        3.65910000       0.76980000       0.57500000
