20
Properties=species:S:1:pos:R:3 gdb_11042=T pbc="F F F"
C        0.05520000       1.56360000      -0.04280000
C        0.04980000       0.04660000       0.06060000
O        0.72940000      -0.48850000      -1.08050000
C        1.18830000      -1.79400000      -0.75550000
C        1.50470000      -1.77770000       0.73520000
C        1.59330000      -3.09140000       1.47010000
C        2.28330000      -0.56450000       1.18210000
C        0.77400000      -0.56100000       1.25380000
H        1.07730000       1.95080000      -0.00590000
H       -0.40210000       1.88220000      -0.98390000
H       -0.51410000       2.00300000       0.78230000
H       -0.99520000      -0.31180000       0.07080000
H        0.41250000      -2.55240000      -0.95970000
H        2.05120000      -2.00790000      -1.39650000
H        2.44000000      -3.69150000       1.11590000
H        1.72970000      -2.93520000       2.54460000
H        0.68370000      -3.68790000       1.33120000
H        2.82290000      -0.64100000       2.12010000
H        2.76630000       0.05060000       0.42920000
H        0.27900000      -0.56450000       2.21860000
