19
Properties=species:S:1:pos:R:3 gdb_35928=T pbc="F F F"
C        0.03350000      -1.24210000      -0.36720000
C        0.02350000      -0.05450000      -0.18080000
C       -0.01480000       1.39930000       0.02990000
C       -0.88980000       1.78810000       1.24100000
C       -0.45800000       1.24840000       2.58370000
C        0.76990000       1.30590000       3.09900000
C        1.98990000       1.89620000       2.43250000
C        2.21810000       1.46190000       0.98130000
O        1.27680000       1.99410000       0.05910000
H        0.04450000      -2.29090000      -0.53450000
H       -0.48040000       1.85040000      -0.85540000
H       -0.90990000       2.88650000       1.26790000
H       -1.91250000       1.46250000       1.02460000
H       -1.24530000       0.80540000       3.18850000
H        0.91880000       0.90690000       4.09970000
H        1.93730000       2.99460000       2.45740000
H        2.88480000       1.62170000       3.00320000
H        3.18550000       1.84330000       0.63880000
H        2.24010000       0.36620000       0.91350000
