16
Properties=species:S:1:pos:R:3 gdb_74345=T pbc="F F F"
C        0.01170000       1.52710000      -0.07750000
C       -0.00700000       0.03720000      -0.02180000
C       -1.03040000      -0.81680000      -0.06400000
C       -0.51630000      -2.23520000       0.03250000
O        0.91380000      -2.08520000       0.13120000
C        1.23660000      -0.75010000       0.10020000
N        2.41050000      -0.28240000       0.15890000
C       -1.04590000      -2.97590000       1.17530000
C       -1.50980000      -3.58150000       2.10270000
H        0.62590000       1.86880000      -0.91680000
H       -0.99480000       1.93880000      -0.17980000
H        0.47360000       1.93480000       0.82750000
H       -2.08510000      -0.59100000      -0.14110000
H       -0.72410000      -2.79990000      -0.88810000
H        3.09850000      -1.03180000       0.24320000
H       -1.91120000      -4.11870000       2.92660000
