19
Properties=species:S:1:pos:R:3 gdb_75461=T pbc="F F F"
C       -0.53600000       1.25730000      -0.05680000
C       -0.12870000      -0.18030000      -0.07010000
C        0.13230000      -0.97330000      -1.10680000
C        0.52700000      -2.34420000      -0.64570000
O        0.47480000      -2.27890000       0.78060000
C        0.05180000      -0.98570000       1.21330000
C        1.05950000      -0.38940000       2.19920000
C       -1.32840000      -1.13820000       1.86970000
O       -1.84170000      -0.31250000       2.57950000
H        0.23860000       1.88150000       0.40460000
H       -0.71080000       1.62760000      -1.06980000
H       -1.44640000       1.40450000       0.53420000
H        0.09800000      -0.68720000      -2.15110000
H       -0.15370000      -3.12910000      -1.00940000
H        1.54220000      -2.62430000      -0.96680000
H        1.99730000      -0.15460000       1.68920000
H        0.65080000       0.51670000       2.65230000
H        1.26590000      -1.11000000       2.99510000
H       -1.83370000      -2.09140000       1.59650000
