17
Properties=species:S:1:pos:R:3 gdb_85779=T pbc="F F F"
C        0.14050000       1.43350000      -0.07610000
N        0.03240000      -0.00200000      -0.04090000
C       -1.12080000      -0.91440000      -0.12940000
C       -0.10670000      -2.08430000      -0.06460000
C       -0.02550000      -3.00770000      -1.27630000
N        1.22870000      -3.50240000      -1.47290000
O       -0.99130000      -3.28520000      -1.95900000
C        0.97800000      -0.98420000      -0.00880000
O        2.18760000      -0.97570000       0.00100000
H        1.20150000       1.68990000      -0.03100000
H       -0.28410000       1.84260000      -1.00070000
H       -0.37240000       1.89460000       0.77620000
H       -1.81260000      -0.83660000       0.71490000
H       -1.67020000      -0.85600000      -1.07280000
H       -0.15550000      -2.68260000       0.84880000
H        2.01580000      -3.03900000      -1.03840000
H        1.38820000      -4.04650000      -2.30620000
