19
Properties=species:S:1:pos:R:3 gdb_80551=T pbc="F F F"
O        0.10320000       1.54350000       0.14020000
C        0.04380000       0.12650000       0.06820000
C        0.14250000      -0.62600000       1.41670000
C       -0.99280000       0.00120000       2.24410000
C       -2.11680000       0.05780000       1.14510000
O       -2.61270000       1.34810000       0.86940000
C       -1.34240000      -0.58860000      -0.02450000
C       -0.63600000      -1.77220000       0.68780000
O        0.10440000      -2.55720000      -0.22180000
H        0.23340000       1.88590000      -0.74930000
H        0.75180000      -0.26170000      -0.66500000
H        1.10250000      -0.80080000       1.90530000
H       -1.27010000      -0.61680000       3.10320000
H       -0.75630000       1.00460000       2.60460000
H       -2.98720000      -0.54230000       1.42620000
H       -1.83870000       1.87700000       0.63200000
H       -1.87450000      -0.72630000      -0.96510000
H       -1.26960000      -2.39710000       1.33200000
H        0.69550000      -3.12210000       0.28630000
