18
Properties=species:S:1:pos:R:3 gdb_10405=T pbc="F F F"
C        0.18750000       1.50450000      -0.12300000
C        0.00950000      -0.00040000       0.08790000
C        0.66730000      -0.50890000       1.37470000
C        0.87140000      -2.05150000       1.47070000
C        2.37350000      -1.71820000       1.47640000
O        2.11350000      -0.30580000       1.33520000
C        0.07610000       0.09310000       2.56820000
C       -0.42110000       0.57010000       3.55370000
H        1.25000000       1.76310000      -0.12940000
H       -0.24810000       1.81670000      -1.07650000
H       -0.29630000       2.07360000       0.67600000
H       -1.05450000      -0.26600000       0.11720000
H        0.45910000      -0.55180000      -0.74610000
H        0.48110000      -2.51470000       2.37610000
H        0.51390000      -2.59580000       0.59500000
H        2.89800000      -1.94240000       2.41280000
H        2.96060000      -2.10970000       0.63790000
H       -0.85210000       0.99760000       4.42530000
