18
Properties=species:S:1:pos:R:3 gdb_77031=T pbc="F F F"
C       -0.03210000       1.52080000       0.63480000
C        0.17380000       0.05800000       0.31310000
C        0.46450000      -0.45870000      -1.09290000
C        0.58160000       0.48180000      -2.23510000
O        1.10960000       1.57320000      -2.22140000
N        1.44770000      -0.54070000       0.00190000
C        2.67450000       0.26940000      -0.04190000
C        3.71940000      -0.42900000      -0.78320000
C        4.57990000      -0.98770000      -1.40770000
H        0.35660000       1.74220000       1.63510000
H        0.44920000       2.18090000      -0.08650000
H       -1.10330000       1.74490000       0.64300000
H       -0.45840000      -0.60940000       0.89950000
H        0.04960000      -1.42400000      -1.37580000
H        0.12270000       0.09220000      -3.17030000
H        2.53130000       1.26150000      -0.48490000
H        2.99040000       0.40690000       0.99940000
H        5.34490000      -1.48060000      -1.95470000
