17
Properties=species:S:1:pos:R:3 gdb_24427=T pbc="F F F"
C        0.00710000       1.52920000      -0.00080000
C        1.45840000       2.05410000       0.04170000
N        2.21820000       1.62440000       1.23220000
C        1.88090000       0.32980000       1.58250000
C        0.93760000      -0.48540000       1.04970000
C       -0.04570000      -0.01570000       0.02780000
N        1.05530000      -1.74290000       1.63920000
C        2.02590000      -1.61070000       2.47940000
O        2.60080000      -0.36980000       2.50520000
H       -0.53950000       1.92760000       0.86270000
H       -0.48680000       1.91330000      -0.89900000
H        1.99840000       1.69490000      -0.84330000
H        1.47620000       3.14640000       0.00970000
H        2.16280000       2.28260000       2.00160000
H       -1.05770000      -0.35750000       0.27030000
H        0.18770000      -0.42560000      -0.96420000
H        2.42910000      -2.33630000       3.16710000
