21
Properties=species:S:1:pos:R:3 gdb_122938=T pbc="F F F"
C        0.06780000       1.54660000      -0.05580000
C       -0.02830000       0.03040000      -0.06030000
O        0.70870000      -0.46500000      -1.16000000
C        0.68120000      -1.87050000      -1.26040000
C        1.45490000      -2.27200000      -2.51020000
C        1.49590000      -3.79820000      -2.68800000
O        0.20870000      -4.34230000      -2.80350000
C        2.33190000      -4.16510000      -3.89670000
O        1.88780000      -4.83580000      -4.79700000
H        1.11040000       1.86490000       0.03270000
H       -0.33840000       1.95900000      -0.98380000
H       -0.49520000       1.96200000       0.78520000
H        0.36890000      -0.38530000       0.88180000
H       -1.08090000      -0.29170000      -0.13280000
H        1.13770000      -2.33240000      -0.36640000
H       -0.35250000      -2.24180000      -1.32650000
H        0.98210000      -1.81700000      -3.38740000
H        2.47660000      -1.87910000      -2.44070000
H        2.01590000      -4.23240000      -1.81190000
H        0.20490000      -4.82820000      -3.64370000
H        3.37300000      -3.78280000      -3.91040000
