18
Properties=species:S:1:pos:R:3 gdb_119861=T pbc="F F F"
C        0.03580000       1.50380000       0.10400000
C        0.00930000      -0.00850000       0.00780000
O        0.69400000      -0.53120000       1.16290000
C        0.77030000      -1.85210000       1.25180000
N        0.30030000      -2.69790000       0.42020000
C        0.60040000      -4.06020000       0.89110000
C        1.37500000      -3.95200000       2.22140000
C        1.47970000      -2.44820000       2.44770000
O        1.99760000      -1.85130000       3.35300000
H        1.06410000       1.87510000       0.11990000
H       -0.47600000       1.93800000      -0.76010000
H       -0.46770000       1.84540000       1.01240000
H       -1.01200000      -0.40480000      -0.00490000
H        0.51150000      -0.37490000      -0.89430000
H       -0.34160000      -4.60840000       1.00030000
H        1.17340000      -4.58040000       0.11600000
H        0.85830000      -4.41590000       3.06680000
H        2.37720000      -4.38850000       2.18030000
