16
Properties=species:S:1:pos:R:3 gdb_390=T pbc="F F F"
C       -0.01300000       1.56770000       0.01870000
C       -0.02160000       0.03630000      -0.03650000
C       -1.44270000      -0.52480000       0.00590000
O       -2.03890000      -0.13350000       1.23400000
C        0.71620000      -0.49100000      -1.26690000
O        2.07000000      -0.06940000      -1.18820000
H        1.01180000       1.94460000       0.01410000
H       -0.53280000       1.98960000      -0.85120000
H       -0.52100000       1.92070000       0.91840000
H        0.50480000      -0.35040000       0.84610000
H       -2.01840000      -0.14060000      -0.85350000
H       -1.41300000      -1.62320000      -0.08360000
H       -2.95310000      -0.43060000       1.23250000
H        0.64880000      -1.59090000      -1.29940000
H        0.23420000      -0.10520000      -2.18130000
H        2.51810000      -0.34550000      -1.99250000
