18
Properties=species:S:1:pos:R:3 gdb_105440=T pbc="F F F"
O        0.12120000       1.20980000      -0.40350000
C       -0.09430000      -0.16240000      -0.17260000
C       -1.58160000      -0.51220000       0.11660000
C       -2.47010000      -0.10780000      -1.10550000
C       -2.63690000      -1.40930000      -1.84730000
C       -2.24410000      -2.45880000      -1.12970000
C       -1.73440000      -2.06380000       0.23450000
C       -1.97200000       0.19150000       1.33790000
N       -2.23490000       0.77840000       2.29960000
H       -0.05140000       1.68350000       0.41880000
H        0.19970000      -0.68320000      -1.08910000
H        0.52660000      -0.54160000       0.65180000
H       -3.44000000       0.29240000      -0.78540000
H       -1.98010000       0.68140000      -1.68360000
H       -3.06090000      -1.45310000      -2.84390000
H       -2.29770000      -3.49450000      -1.44470000
H       -0.77950000      -2.53560000       0.49600000
H       -2.44270000      -2.34210000       1.02420000
