20
Properties=species:S:1:pos:R:3 gdb_119580=T pbc="F F F"
C       -0.01420000       1.37420000      -0.05330000
O        0.01430000      -0.03140000      -0.14710000
C       -1.26540000      -0.62100000       0.00650000
C       -1.06480000      -2.10380000      -0.02220000
C       -1.24660000      -2.95950000      -1.21020000
N       -2.20310000      -3.11020000      -0.09510000
C       -1.46920000      -3.94780000       0.92690000
C       -0.36030000      -2.88560000       1.08740000
O        0.94680000      -3.35250000       0.84940000
H        1.01140000       1.73140000      -0.17340000
H       -0.64120000       1.82230000      -0.83970000
H       -0.39740000       1.71010000       0.92320000
H       -1.71330000      -0.31050000       0.96650000
H       -1.95250000      -0.30080000      -0.79340000
H       -1.68800000      -2.49810000      -2.08830000
H       -0.53820000      -3.75890000      -1.41210000
H       -2.08640000      -4.09470000       1.81450000
H       -1.13440000      -4.91600000       0.54370000
H       -0.42770000      -2.35860000       2.04950000
H        1.50770000      -2.57960000       0.71630000
