16
Properties=species:S:1:pos:R:3 gdb_131287=T pbc="F F F"
O       -0.44700000       1.17960000      -0.06650000
C       -0.15100000      -0.12610000      -0.02560000
N       -0.42870000      -0.92610000      -1.03820000
N        0.02330000      -2.13020000      -0.56420000
C        0.54040000      -1.96620000       0.66680000
N        0.44260000      -0.70510000       1.05310000
C       -0.00100000      -3.29870000      -1.38840000
C       -0.44860000      -4.60180000      -0.77950000
C       -1.33090000      -3.88400000      -1.76900000
H       -0.15490000       1.55190000       0.77420000
H        0.96690000      -2.77820000       1.23560000
H        0.79180000      -3.32450000      -2.12950000
H        0.07010000      -5.50090000      -1.09050000
H       -0.75450000      -4.59400000       0.26000000
H       -2.21120000      -3.38090000      -1.38870000
H       -1.43020000      -4.28460000      -2.77070000
