16
Properties=species:S:1:pos:R:3 gdb_30259=T pbc="F F F"
O        0.38970000       1.28040000      -0.36770000
C        0.06890000      -0.04820000      -0.04990000
C        0.30280000      -0.52900000       1.44700000
N       -1.14660000      -0.79870000       1.49890000
C       -2.17900000      -1.51500000       2.00440000
C       -3.14750000      -1.54850000       1.00310000
C       -2.63420000      -0.89350000      -0.15700000
O       -3.23780000      -0.73360000      -1.36800000
C       -1.38070000      -0.42880000       0.19320000
H       -0.26900000       1.84520000       0.05190000
H        0.60360000      -0.66790000      -0.77500000
H        0.92280000      -1.42330000       1.55760000
H        0.63810000       0.25220000       2.13490000
H       -2.20090000      -1.89780000       3.01210000
H       -4.13720000      -1.97280000       1.10280000
H       -4.10470000      -1.14830000      -1.33310000
