16
Properties=species:S:1:pos:R:3 gdb_84247=T pbc="F F F"
C       -0.09930000       1.53900000      -0.07360000
C        0.00110000       0.01980000      -0.03060000
N        0.93820000      -0.41460000      -1.12660000
C        1.61340000      -1.31380000      -0.54570000
O        2.95550000      -1.12800000      -0.18760000
C        2.30590000      -1.05750000       1.16170000
C        1.17290000      -1.91780000       0.82620000
C        0.71090000      -0.57090000       1.22710000
O        0.19660000      -0.37250000       2.48980000
H        0.89560000       1.99120000      -0.03610000
H       -0.58730000       1.86310000      -0.99570000
H       -0.69560000       1.90180000       0.77230000
H       -1.00650000      -0.41940000      -0.09550000
H        2.97980000      -1.01230000       2.00890000
H        0.87770000      -2.92420000       1.09410000
H        0.24900000       0.56740000       2.69740000
