23
Properties=species:S:1:pos:R:3 gdb_121246=T pbc="F F F"
C        0.33530000       1.35160000      -0.18730000
O        0.14090000      -0.03420000      -0.05460000
C        0.69910000      -0.55460000       1.13620000
C        0.42380000      -2.05030000       1.16130000
C        1.26340000      -2.85570000       0.12720000
C        2.26920000      -3.22260000       1.25500000
C        1.17770000      -2.80730000       2.28380000
O        1.53580000      -2.01810000       3.38810000
C        2.24750000      -2.72900000       4.37510000
H        1.40510000       1.61590000      -0.21030000
H       -0.12360000       1.66010000      -1.13020000
H       -0.13460000       1.91300000       0.63640000
H        1.78180000      -0.34980000       1.17240000
H        0.25440000      -0.06960000       2.01920000
H       -0.65790000      -2.20460000       1.12860000
H        0.72790000      -3.72880000      -0.25310000
H        1.64540000      -2.28590000      -0.72130000
H        2.64510000      -4.24760000       1.29220000
H        3.11720000      -2.53280000       1.29060000
H        0.60570000      -3.68740000       2.61900000
H        1.66050000      -3.57480000       4.76710000
H        3.20170000      -3.12160000       3.99310000
H        2.45520000      -2.03450000       5.19280000
