19
Properties=species:S:1:pos:R:3 gdb_92892=T pbc="F F F"
C       -0.01800000       1.53630000       0.05380000
C        0.07030000       0.01200000       0.03820000
C        0.71480000      -0.54350000      -1.26090000
C        1.10190000      -1.99480000      -1.16030000
C        1.16650000      -2.67330000      -0.01690000
C        0.84970000      -2.06880000       1.33560000
O        1.77070000      -2.48760000       2.31050000
C        0.84160000      -0.54670000       1.21600000
O        1.46800000       0.12360000       2.00890000
H        0.98080000       1.98130000       0.04530000
H       -0.56660000       1.89750000      -0.82130000
H       -0.52840000       1.89300000       0.95200000
H       -0.93760000      -0.42310000       0.09810000
H        0.02130000      -0.38980000      -2.09680000
H        1.60510000       0.05480000      -1.50470000
H        1.35590000      -2.49280000      -2.09310000
H        1.47130000      -3.71550000       0.00570000
H       -0.16950000      -2.37690000       1.63740000
H        2.09740000      -1.66750000       2.71510000
