21
Properties=species:S:1:pos:R:3 gdb_116324=T pbc="F F F"
C       -0.01910000       1.57980000       0.01900000
C        0.00510000       0.04910000       0.01340000
C        0.71660000      -0.54650000       1.22510000
O        0.01600000      -0.12460000       2.39860000
C        0.54000000      -0.72490000       3.54990000
O        0.22940000      -2.09410000       3.62720000
C        0.62060000      -2.81180000       2.48570000
C       -0.38780000      -2.94640000       1.37600000
C        0.82730000      -2.06210000       1.19190000
H        0.99620000       1.99220000       0.00830000
H       -0.54450000       1.96630000      -0.85930000
H       -0.52320000       1.95500000       0.91290000
H       -1.01660000      -0.34590000      -0.01540000
H        0.51050000      -0.31950000      -0.88780000
H        1.74180000      -0.13620000       1.27550000
H        1.63490000      -0.57630000       3.58320000
H        0.06700000      -0.25250000       4.41310000
H        1.26470000      -3.65370000       2.72510000
H       -0.43920000      -3.87500000       0.81860000
H       -1.33970000      -2.45920000       1.55550000
H        1.60790000      -2.43390000       0.53460000
