15
Properties=species:S:1:pos:R:3 gdb_130671=T pbc="F F F"
O       -0.07230000      -0.01440000       0.24170000
C       -0.03580000       1.17330000       0.09590000
N       -1.06570000       2.10410000       0.11960000
C       -0.53370000       3.35070000      -0.09200000
N        0.74830000       3.29420000      -0.26390000
O        1.08680000       1.92070000      -0.13870000
C       -1.32720000       4.58810000      -0.08420000
C       -1.10920000       5.60210000       1.03290000
C       -0.64890000       5.90840000      -0.35920000
H       -2.02490000       1.86610000       0.30220000
H       -2.34630000       4.46420000      -0.43590000
H       -1.98660000       6.10740000       1.42040000
H       -0.35560000       5.35750000       1.77230000
H        0.41450000       5.87390000      -0.56180000
H       -1.20510000       6.63250000      -0.94260000
