13
Properties=species:S:1:pos:R:3 gdb_128003=T pbc="F F F"
C        0.14240000       1.43040000       0.08380000
N        0.19760000      -0.02290000       0.08980000
C        0.43870000      -0.63170000      -0.98340000
O        0.65840000       0.04680000      -2.16510000
N        0.89340000      -0.63250000      -3.36920000
C        0.91830000      -1.90000000      -3.30640000
O        0.74830000      -2.70170000      -2.22860000
C        0.49640000      -2.13200000      -0.98900000
O        0.34770000      -2.83930000      -0.04830000
H        1.11960000       1.85870000      -0.17150000
H       -0.57560000       1.80520000      -0.65570000
H       -0.14710000       1.77780000       1.07650000
H        1.09850000      -2.45230000      -4.22020000
