16
Properties=species:S:1:pos:R:3 gdb_52982=T pbc="F F F"
C        0.04030000       1.46070000       0.00520000
C        0.01580000       0.00650000       0.00290000
C        0.00130000      -1.19820000       0.00770000
C       -0.03580000      -2.62130000      -0.00220000
C       -0.47190000      -3.44760000      -1.18840000
C       -1.26950000      -3.54380000       0.08840000
N       -0.90190000      -4.59930000       0.99640000
C        0.30650000      -4.37200000       1.32310000
O        0.92640000      -3.26410000       0.84450000
H        0.87860000       1.83140000       0.60510000
H        0.15540000       1.86120000      -1.00800000
H       -0.88000000       1.87710000       0.42940000
H       -0.91800000      -2.88890000      -2.00250000
H        0.14360000      -4.29340000      -1.47700000
H       -2.28980000      -3.18390000       0.12940000
H        0.91720000      -4.98560000       1.97390000
