18
Properties=species:S:1:pos:R:3 gdb_31575=T pbc="F F F"
C       -0.00440000       1.36200000      -0.04150000
O       -0.02430000      -0.06310000       0.04090000
C       -1.25010000      -0.60550000       0.03410000
N       -2.40000000       0.01220000      -0.03670000
C       -3.35490000      -1.00000000      -0.00820000
C       -4.81420000      -0.69400000      -0.07060000
C       -2.74890000      -2.22420000       0.08060000
N       -3.18760000      -3.56430000       0.14380000
N       -1.37640000      -1.95160000       0.10720000
H        1.04870000       1.64510000      -0.02540000
H       -0.47860000       1.70430000      -0.96610000
H       -0.53340000       1.80760000       0.80610000
H       -5.07040000      -0.15820000      -0.99170000
H       -5.40580000      -1.61370000      -0.03640000
H       -5.12460000      -0.05790000       0.76610000
H       -3.76660000      -3.74340000       0.95670000
H       -3.71530000      -3.83730000      -0.67800000
H       -0.64070000      -2.63450000       0.16880000
