15
Properties=species:S:1:pos:R:3 gdb_1262=T pbc="F F F"
C       -0.04340000       1.53910000      -0.03120000
C        0.13990000       0.01050000      -0.02870000
C        0.75630000      -0.49520000       1.19020000
C        1.26910000      -0.88200000       2.21310000
C        1.88460000      -1.35180000       3.43940000
C        2.10150000      -2.84990000       3.52620000
O        2.20050000      -0.58970000       4.32890000
H        0.91990000       2.04520000       0.06970000
H       -0.50880000       1.86210000      -0.96680000
H       -0.67950000       1.85470000       0.79950000
H       -0.83100000      -0.48330000      -0.16520000
H        0.75180000      -0.29480000      -0.88740000
H        1.14500000      -3.37430000       3.42680000
H        2.73690000      -3.18610000       2.69970000
H        2.56700000      -3.09780000       4.48120000
