19
Properties=species:S:1:pos:R:3 gdb_59317=T pbc="F F F"
C        0.63090000       0.59400000      -0.35470000
C       -0.14640000      -0.00170000       0.81420000
O       -0.73860000       1.02480000       1.61650000
C       -1.23230000      -1.01680000       0.43570000
N       -2.11100000      -0.63470000      -0.69140000
C       -1.83050000      -1.75690000      -1.45560000
N       -2.14230000      -2.22470000      -2.58920000
C       -0.87520000      -2.29960000      -0.39370000
O        0.46730000      -2.48510000      -0.76540000
H        1.35020000       1.32600000       0.02230000
H        1.16180000      -0.18610000      -0.90200000
H       -0.04790000       1.09720000      -1.05280000
H        0.54770000      -0.52080000       1.48630000
H       -1.13500000       1.66480000       1.01570000
H       -1.78710000      -1.25550000       1.34970000
H       -2.96430000      -0.09610000      -0.66910000
H       -2.80410000      -1.62810000      -3.08820000
H       -1.27640000      -3.20400000       0.08360000
H        0.45950000      -2.80230000      -1.67640000
