19
Properties=species:S:1:pos:R:3 gdb_73577=T pbc="F F F"
C        0.11410000       1.61500000       0.00950000
C        0.00990000       0.10480000       0.08270000
O       -1.34250000      -0.27970000       0.14090000
C       -1.48280000      -1.46810000       0.92710000
C       -0.29470000      -1.49810000       1.92060000
C        0.77560000      -0.63860000       1.23820000
C        1.66940000      -1.28310000       0.16220000
O        0.82120000      -2.04150000      -0.70740000
C        0.93040000      -0.63250000      -0.93510000
H        1.15880000       1.93360000      -0.06190000
H       -0.41850000       1.98750000      -0.87150000
H       -0.33290000       2.07180000       0.89700000
H       -2.45430000      -1.41030000       1.42880000
H       -1.46930000      -2.35120000       0.28200000
H       -0.58030000      -1.04650000       2.87510000
H        0.03580000      -2.52100000       2.11810000
H        1.32070000       0.02290000       1.91390000
H        2.70850000      -1.58400000       0.22650000
H        1.25090000      -0.31540000      -1.92210000
