20
Properties=species:S:1:pos:R:3 gdb_115160=T pbc="F F F"
C        0.77330000      -0.37320000      -1.30710000
C        0.04680000      -0.04190000      -0.00040000
C       -1.45080000      -0.39170000      -0.03940000
C       -1.74300000      -1.90970000       0.02750000
O       -2.16430000      -2.16410000       1.37110000
C       -2.51050000      -0.98540000       1.97450000
O       -3.01790000      -0.92330000       3.06260000
N       -2.17930000       0.04880000       1.13680000
C       -2.39850000       1.42760000       1.50290000
H        1.83150000      -0.10530000      -1.24390000
H        0.72050000      -1.44080000      -1.54620000
H        0.34080000       0.17630000      -2.15070000
H        0.50890000      -0.57170000       0.84200000
H        0.15380000       1.02860000       0.20860000
H       -1.89310000       0.04500000      -0.94540000
H       -2.54610000      -2.20300000      -0.65740000
H       -0.86160000      -2.52100000      -0.17820000
H       -2.98720000       1.43020000       2.42170000
H       -1.45930000       1.96340000       1.68780000
H       -2.95090000       1.95760000       0.71760000
