16
Properties=species:S:1:pos:R:3 gdb_49111=T pbc="F F F"
O       -0.00170000       0.22110000       0.62570000
C        0.06850000       1.36980000       0.23600000
C        1.23790000       1.93550000      -0.43240000
C        1.43890000       3.27640000      -0.54010000
N        1.33430000       4.01850000       0.73900000
C        2.87450000       3.83910000       0.64480000
C        3.45570000       2.51930000      -0.01650000
C        2.61290000       1.27250000      -0.34870000
C        2.90590000       3.65390000      -0.82540000
H       -0.78380000       2.07090000       0.34750000
H        1.22810000       5.02070000       0.55050000
H        3.50070000       4.44620000       1.29280000
H        4.53150000       2.43130000       0.12950000
H        2.55840000       0.51370000       0.43770000
H        2.99640000       0.78270000      -1.25280000
H        3.33020000       4.22810000      -1.63890000
