21
Properties=species:S:1:pos:R:3 gdb_38302=T pbc="F F F"
C       -0.03650000       1.55800000       0.08600000
C        1.51650000       1.45640000       0.03400000
C        1.30460000       0.15960000       0.88450000
C       -0.00480000       0.00170000       0.04150000
C        0.34510000      -0.51240000      -1.43040000
C        1.88390000      -0.45900000      -1.59220000
C        2.00680000       1.07670000      -1.43860000
C        0.95730000       1.47230000      -2.48270000
C       -0.00860000       0.54870000      -2.47800000
H       -0.36600000       1.90750000       1.06840000
H       -0.56660000       2.10830000      -0.68740000
H        2.10680000       2.27390000       0.45370000
H        2.05740000      -0.62750000       0.90140000
H        1.06360000       0.41700000       1.91960000
H       -0.84560000      -0.54930000       0.46830000
H       -0.10170000      -1.49240000      -1.61020000
H        2.45340000      -1.05080000      -0.87800000
H        2.17660000      -0.77020000      -2.59790000
H        3.00490000       1.47830000      -1.62550000
H        0.97320000       2.39320000      -3.05340000
H       -0.93220000       0.57110000      -3.04400000
