19
Properties=species:S:1:pos:R:3 gdb_74355=T pbc="F F F"
C       -0.00200000       1.58870000       0.14240000
C        0.01910000       0.10030000       0.00530000
C       -0.07470000      -0.60760000      -1.12330000
C       -0.07840000      -2.08830000      -0.87250000
C        0.31630000      -2.21280000       0.61520000
C        0.12510000      -0.80150000       1.21680000
O       -1.41880000      -2.61540000      -1.08010000
C       -1.60030000      -3.55410000      -2.02060000
O       -2.66620000      -4.03990000      -2.26070000
H        0.91430000       1.95290000       0.62350000
H       -0.10280000       2.08590000      -0.82550000
H       -0.83530000       1.90850000       0.78060000
H       -0.19450000      -0.19170000      -2.11750000
H        0.59730000      -2.64720000      -1.53180000
H       -0.28020000      -2.98210000       1.10940000
H        1.36590000      -2.51270000       0.68370000
H        0.95630000      -0.51500000       1.87160000
H       -0.78440000      -0.72480000       1.82730000
H       -0.66200000      -3.82760000      -2.54460000
