16
Properties=species:S:1:pos:R:3 gdb_46579=T pbc="F F F"
N       -0.01060000       1.28530000       0.31010000
C       -0.00970000       0.05060000       0.05280000
O        1.13550000      -0.68490000      -0.22650000
C        0.81820000      -1.93510000      -0.89050000
C       -0.65020000      -2.14610000      -0.61620000
C       -1.18290000      -2.14680000       0.76950000
C       -1.17850000      -0.85430000      -0.03600000
C       -2.20570000      -0.93930000      -1.17200000
O       -1.66190000      -2.22140000      -1.62520000
H        0.93240000       1.66920000       0.22430000
H        0.99160000      -1.83950000      -1.96790000
H        1.48570000      -2.69650000      -0.47940000
H       -2.13840000      -2.62110000       0.96490000
H       -0.45850000      -2.20190000       1.57440000
H       -3.25980000      -1.02060000      -0.88950000
H       -2.07650000      -0.16570000      -1.93420000
