18
Properties=species:S:1:pos:R:3 gdb_119544=T pbc="F F F"
C       -0.10550000       1.54410000      -0.06980000
C       -0.05600000       0.03080000      -0.15840000
O       -1.35400000      -0.47480000       0.18620000
C       -1.42460000      -1.83550000       0.17840000
C       -1.64080000      -2.66180000      -1.10540000
C       -2.63630000      -2.72350000       0.01910000
N       -2.14650000      -3.57450000       1.11150000
C       -0.97070000      -2.80800000       1.27200000
O       -0.02250000      -2.93280000       1.99280000
H        0.86830000       1.96830000      -0.33130000
H       -0.85570000       1.94690000      -0.75640000
H       -0.36140000       1.86180000       0.94460000
H        0.20400000      -0.29890000      -1.17520000
H        0.69030000      -0.38400000       0.53080000
H       -1.92190000      -2.04670000      -1.95630000
H       -1.02400000      -3.52500000      -1.33890000
H       -3.67730000      -2.43720000      -0.04010000
H       -2.12200000      -4.58700000       1.05010000
