19
Properties=species:S:1:pos:R:3 gdb_114283=T pbc="F F F"
O       -0.00870000       1.33980000      -0.34480000
C        0.00290000      -0.01110000       0.10170000
C       -1.42300000      -0.52070000       0.05990000
C       -1.99620000      -0.69710000      -1.40370000
C       -1.59340000      -2.14860000      -1.25600000
C       -0.73440000      -3.06040000      -1.69560000
C       -0.16010000      -3.76810000      -0.47480000
O       -0.50230000      -2.93250000       0.65160000
C       -1.55900000      -2.08750000       0.23510000
H        0.89640000       1.66430000      -0.33440000
H        0.64110000      -0.63750000      -0.53900000
H        0.38900000      -0.09330000       1.12880000
H       -2.05150000       0.07350000       0.72800000
H       -3.07640000      -0.53040000      -1.43510000
H       -1.51930000      -0.11910000      -2.19650000
H       -0.35700000      -3.21330000      -2.69870000
H       -0.56050000      -4.78310000      -0.32040000
H        0.93290000      -3.85020000      -0.52990000
H       -2.48750000      -2.33780000       0.76740000
