19
Properties=species:S:1:pos:R:3 gdb_117854=T pbc="F F F"
C       -0.01750000       1.62750000      -0.56230000
C       -0.20450000       0.14950000      -0.27450000
O        0.84190000      -0.55520000      -0.95890000
C        0.83380000      -1.89970000      -0.85890000
N        1.81770000      -2.44340000      -1.65930000
N       -0.02810000      -2.50830000      -0.14160000
C       -0.01790000      -3.96620000      -0.15550000
C        1.19720000      -4.58470000       0.39260000
C        2.21630000      -5.06460000       0.81720000
H        0.95580000       1.97610000      -0.20500000
H       -0.08180000       1.82880000      -1.63560000
H       -0.79680000       2.20490000      -0.05600000
H       -0.14410000      -0.07140000       0.79580000
H       -1.17360000      -0.21870000      -0.62600000
H        2.50480000      -1.77500000      -1.97500000
H        2.21410000      -3.30790000      -1.31630000
H       -0.87540000      -4.31140000       0.43270000
H       -0.16890000      -4.35490000      -1.17610000
H        3.09720000      -5.49990000       1.22010000
