25
Properties=species:S:1:pos:R:3 gdb_116290=T pbc="F F F"
C       -0.22410000       1.78130000       0.20270000
C       -0.03860000       0.26210000       0.29090000
C       -1.31620000      -0.52630000      -0.01960000
C       -1.82370000      -0.40200000      -1.47850000
C       -2.66260000      -1.68280000      -1.75130000
C       -2.54640000      -2.54720000      -0.46980000
C       -1.26810000      -2.05360000       0.23600000
C       -0.01520000      -2.73650000      -0.31500000
O       -0.12790000      -4.12970000      -0.04710000
H        0.69910000       2.30930000       0.46170000
H       -0.51180000       2.09280000      -0.80660000
H       -1.00680000       2.12270000       0.88980000
H        0.76100000      -0.04140000      -0.39740000
H        0.30950000       0.00130000       1.29920000
H       -2.10690000      -0.13890000       0.63950000
H       -2.40380000       0.51250000      -1.62910000
H       -0.97240000      -0.34320000      -2.16720000
H       -3.70580000      -1.44870000      -1.98100000
H       -2.27090000      -2.21970000      -2.62070000
H       -3.40810000      -2.36820000       0.18270000
H       -2.51150000      -3.61890000      -0.67500000
H       -1.30060000      -2.27200000       1.30960000
H        0.08090000      -2.55260000      -1.39750000
H        0.88200000      -2.32150000       0.16750000
H        0.65060000      -4.56680000      -0.40370000
