20
Properties=species:S:1:pos:R:3 gdb_79784=T pbc="F F F"
C       -0.20890000       1.61380000      -0.04260000
C        0.02750000       0.11370000       0.00550000
C        1.20640000      -0.53880000      -0.75220000
C        2.49860000       0.14280000      -0.28600000
C        3.52580000      -1.01720000      -0.25160000
C        2.62130000      -1.55000000       0.85800000
C        2.19600000      -0.11030000       1.25700000
C        0.71590000      -0.55390000       1.20110000
N        1.20780000      -1.68420000       0.28560000
H        0.68790000       2.17540000       0.23790000
H       -0.50370000       1.93530000      -1.04760000
H       -1.01070000       1.90510000       0.64450000
H       -0.88970000      -0.44000000      -0.22150000
H        1.13000000      -0.82260000      -1.80310000
H        2.75080000       1.12290000      -0.68870000
H        3.66560000      -1.61690000      -1.15710000
H        4.49620000      -0.70190000       0.14300000
H        2.88970000      -2.35490000       1.54110000
H        2.66320000       0.51600000       2.01580000
H        0.20000000      -0.82180000       2.12480000
