20
Properties=species:S:1:pos:R:3 gdb_64451=T pbc="F F F"
C        0.09590000       1.47890000      -0.06820000
C       -0.04210000      -0.04410000      -0.00280000
C       -1.52150000      -0.45770000       0.06630000
O        0.56310000      -0.53450000      -1.20980000
C        0.97900000      -1.88070000      -1.15510000
C        2.09770000      -2.03270000      -0.13450000
N        1.63680000      -1.48160000       1.12880000
C        0.66560000      -0.53750000       1.27790000
O        0.34540000      -0.10350000       2.37110000
H        1.14780000       1.76140000      -0.16380000
H       -0.44300000       1.85850000      -0.94070000
H       -0.30980000       1.92800000       0.83930000
H       -2.05690000      -0.04450000      -0.79270000
H       -1.63890000      -1.54570000       0.05640000
H       -1.96690000      -0.08150000       0.98940000
H        0.14640000      -2.55350000      -0.89880000
H        1.33270000      -2.14320000      -2.15590000
H        2.35190000      -3.09060000      -0.00110000
H        2.99720000      -1.51170000      -0.49140000
H        2.10720000      -1.73330000       1.98640000
