13
Properties=species:S:1:pos:R:3 gdb_43577=T pbc="F F F"
N       -0.01650000       1.17520000       0.39440000
C        0.00210000      -0.02200000       0.01190000
O        1.11940000      -0.69990000      -0.43040000
C        0.75920000      -1.94140000      -1.05850000
C        1.63790000      -3.01370000      -0.57850000
N        2.31870000      -3.88150000      -0.23840000
C       -0.71310000      -2.16430000      -0.72020000
O       -0.93850000      -2.15530000       0.67660000
C       -1.17120000      -0.93820000      -0.05990000
H        0.90760000       1.60440000       0.32300000
H        0.88660000      -1.84000000      -2.14380000
H       -1.32710000      -2.81620000      -1.33250000
H       -2.18200000      -0.55090000      -0.07170000
