18
Properties=species:S:1:pos:R:3 gdb_54123=T pbc="F F F"
N        0.09270000       1.02600000       0.06960000
H       -0.25980000       0.18470000      -0.37180000
H        1.08110000       0.89940000       0.25330000
H       -0.53730000       2.71930000      -0.53060000
C       -0.65450000       1.38760000       1.25840000
C       -1.45240000       0.41070000       2.10070000
C       -0.76310000      -0.95620000       2.15230000
C        0.51080000      -0.26860000       2.74300000
C       -0.21070000       1.08080000       2.67600000
C       -1.33030000       2.74220000       1.14040000
O       -1.10750000       3.34550000      -0.03330000
O       -2.00160000       3.23040000       2.01400000
H       -2.49100000       0.62340000       2.31720000
H       -1.23690000      -1.63100000       2.86740000
H       -0.64990000      -1.49100000       1.20300000
H        0.70870000      -0.58010000       3.77030000
H        1.44190000      -0.36300000       2.17360000
H       -0.15540000       1.88370000       3.39920000
