21
Properties=species:S:1:pos:R:3 gdb_121993=T pbc="F F F"
C       -0.01830000       1.36910000       0.04880000
O       -0.02220000      -0.03610000      -0.03580000
C       -1.31480000      -0.58790000       0.07360000
C       -1.18280000      -2.10550000       0.02540000
C       -2.52140000      -2.83640000       0.03130000
C       -2.37390000      -4.35140000      -0.05610000
O       -3.19690000      -2.49950000       1.26750000
C       -4.52450000      -2.29440000       1.23140000
O       -5.17330000      -2.06350000       2.20760000
H        1.01940000       1.69930000      -0.04000000
H       -0.60800000       1.82940000      -0.76020000
H       -0.42370000       1.72180000       1.01020000
H       -1.79370000      -0.27480000       1.01420000
H       -1.95690000      -0.23140000      -0.75290000
H       -0.63870000      -2.38250000      -0.88420000
H       -0.58090000      -2.44270000       0.87630000
H       -3.13920000      -2.47550000      -0.80390000
H       -1.79800000      -4.72730000       0.79460000
H       -3.35260000      -4.83990000      -0.05030000
H       -1.85600000      -4.63140000      -0.97830000
H       -4.94170000      -2.35260000       0.20600000
