19
Properties=species:S:1:pos:R:3 gdb_59453=T pbc="F F F"
C       -0.14170000       1.55560000      -0.51160000
C        0.08880000       0.23040000       0.21110000
O        0.74190000       0.40130000       1.46660000
C       -1.22130000      -0.50530000       0.42440000
O       -1.82770000      -1.11940000      -0.70050000
C       -1.36920000      -1.97980000       0.33980000
C       -0.19190000      -2.87630000       0.04290000
C        0.01920000      -4.00240000       1.03490000
O        0.53030000      -2.69370000      -0.90920000
H        0.80850000       2.07690000      -0.65450000
H       -0.60110000       1.38350000      -1.48910000
H       -0.81060000       2.20780000       0.06560000
H        0.74900000      -0.40110000      -0.38680000
H        0.29690000       1.11390000       1.93860000
H       -1.92190000       0.00800000       1.09140000
H       -2.16120000      -2.43490000       0.93620000
H       -0.82690000      -4.69890000       1.00220000
H        0.94030000      -4.53490000       0.79730000
H        0.06920000      -3.60680000       2.05590000
