13
Properties=species:S:1:pos:R:3 gdb_25187=T pbc="F F F"
N       -0.09320000       1.25170000      -0.39510000
C       -0.00720000       0.03030000      -0.02540000
C       -1.21990000      -0.76390000       0.07260000
C       -1.40080000      -1.99960000       0.57440000
N       -0.50480000      -2.84760000       1.20140000
C        0.74850000      -2.71220000       1.25700000
O        1.60770000      -1.78790000       0.73160000
C        1.39170000      -0.53480000       0.20110000
O        2.36500000       0.09860000      -0.08200000
H        0.84830000       1.65080000      -0.45990000
H       -2.09020000      -0.24870000      -0.32070000
H       -2.40430000      -2.41390000       0.53840000
H        1.35000000      -3.44560000       1.78730000
