23
Properties=species:S:1:pos:R:3 gdb_120221=T pbc="F F F"
C       -0.06530000       1.47400000      -0.01360000
C       -0.10950000      -0.01900000       0.26470000
O       -1.29620000      -0.54460000      -0.30110000
C       -1.41890000      -1.93680000      -0.17350000
C       -1.94530000      -2.46650000       1.20480000
C       -3.34940000      -1.99490000       0.72360000
C       -2.80260000      -2.43670000      -0.66750000
C       -2.65520000      -3.95850000      -0.49060000
C       -1.99410000      -3.98070000       0.93270000
H        0.84520000       1.91380000       0.40430000
H       -0.08140000       1.66330000      -1.09070000
H       -0.92930000       1.97380000       0.43380000
H        0.76940000      -0.52050000      -0.17470000
H       -0.07930000      -0.21020000       1.34910000
H       -0.52480000      -2.43640000      -0.58160000
H       -1.51570000      -2.13910000       2.15220000
H       -4.22720000      -2.51560000       1.11810000
H       -3.47460000      -0.91560000       0.79530000
H       -3.22420000      -2.06670000      -1.60210000
H       -3.62100000      -4.47040000      -0.51430000
H       -2.01760000      -4.41010000      -1.25650000
H       -0.99920000      -4.43670000       0.92420000
H       -2.59900000      -4.51450000       1.67100000
