16
Properties=species:S:1:pos:R:3 gdb_69150=T pbc="F F F"
C       -0.13240000       1.50400000       0.02970000
C        0.06880000       0.01660000      -0.01920000
O       -0.45660000      -0.75730000       1.05360000
C        0.96910000      -0.75260000       0.86950000
C        1.51780000      -1.92950000       0.07780000
O        2.46530000      -2.60290000       0.39430000
C        0.83690000      -1.94400000      -1.27810000
N       -0.64750000      -2.04130000      -1.26430000
C       -0.01080000      -0.72250000      -1.36520000
H        0.56760000       2.01380000      -0.64060000
H       -1.14990000       1.76300000      -0.28290000
H        0.01930000       1.87740000       1.04500000
H        1.56220000      -0.33890000       1.68080000
H        1.39320000      -2.36130000      -2.10990000
H       -0.93870000      -2.33820000      -2.19470000
H       -0.09390000      -0.14200000      -2.27760000
