15
Properties=species:S:1:pos:R:3 gdb_21965=T pbc="F F F"
O       -0.07390000       1.40440000       0.01050000
C        0.03170000      -0.00720000       0.00180000
C       -1.40110000      -0.54100000       0.01230000
N       -1.43380000      -1.99110000       0.00480000
N       -1.41590000      -2.69180000      -1.12460000
C       -1.38040000      -3.95880000      -0.70650000
C       -1.37160000      -3.96620000       0.69440000
N       -1.40180000      -2.70390000       1.12640000
H        0.81280000       1.77570000       0.00240000
H        0.54820000      -0.37880000      -0.89560000
H        0.56490000      -0.38850000       0.88510000
H       -1.91950000      -0.19940000       0.90950000
H       -1.93620000      -0.18940000      -0.87110000
H       -1.37100000      -4.77580000      -1.40990000
H       -1.35340000      -4.79080000       1.38890000
