16
Properties=species:S:1:pos:R:3 gdb_82266=T pbc="F F F"
O        0.00210000       1.42720000       0.06150000
C        0.01990000       0.01100000       0.00880000
C       -1.40210000      -0.53700000      -0.05140000
C       -2.26000000      -0.08020000      -1.19710000
C       -1.51860000      -1.40660000      -1.28960000
C       -0.19770000      -1.32720000      -1.96090000
C        0.64820000      -0.53500000      -1.28470000
C        1.95420000      -0.14340000      -1.67130000
N        3.02680000       0.22050000      -1.91970000
H        0.91350000       1.73920000       0.09950000
H        0.55290000      -0.39340000       0.88260000
H       -1.88040000      -0.82230000       0.87650000
H       -3.33400000      -0.12780000      -1.05560000
H       -1.91070000       0.74470000      -1.80670000
H       -2.08460000      -2.33000000      -1.30500000
H        0.02820000      -1.81680000      -2.90110000
