23
Properties=species:S:1:pos:R:3 gdb_92744=T pbc="F F F"
C        0.05290000       1.57490000      -0.00180000
C        0.04360000       0.04490000       0.01780000
C        0.71600000      -0.54430000      -1.23500000
C        1.00760000      -2.02650000      -1.14030000
C        1.39910000      -2.70610000      -2.42470000
C        0.93100000      -2.68410000       0.02170000
C        0.56080000      -2.04100000       1.33560000
C        0.71970000      -0.51720000       1.28270000
O        2.09480000      -0.13910000       1.35360000
H        1.07830000       1.94640000       0.08600000
H       -0.37800000       1.96490000      -0.93020000
H       -0.52490000       1.98460000       0.83370000
H       -0.99850000      -0.30420000       0.03660000
H        0.08840000      -0.35080000      -2.11520000
H        1.65510000      -0.00500000      -1.43580000
H        2.27710000      -2.22600000      -2.87660000
H        1.63170000      -3.76330000      -2.27070000
H        0.59460000      -2.63800000      -3.16850000
H        1.14610000      -3.75090000       0.04080000
H       -0.47330000      -2.29910000       1.60670000
H        1.19050000      -2.43410000       2.14320000
H        0.26040000      -0.06700000       2.17020000
H        2.57810000      -0.70880000       0.74460000
