15
Properties=species:S:1:pos:R:3 gdb_42274=T pbc="F F F"
O        0.56690000       1.22940000       1.74920000
C       -0.01040000       1.40530000       0.70350000
C        0.71900000       1.20330000      -0.56610000
N        1.34220000       1.09120000      -1.53380000
C       -1.45830000       1.82090000       0.61530000
C       -2.04190000       2.52660000      -0.66270000
C       -3.03320000       1.36540000      -0.80620000
N       -2.20770000       0.14950000      -0.97650000
C       -2.46910000       0.67150000       0.38190000
H       -1.68940000       2.36400000       1.53320000
H       -2.50780000       3.47990000      -0.40910000
H       -1.36010000       2.65790000      -1.50540000
H       -4.05260000       1.40210000      -1.16690000
H       -2.83580000      -0.63940000      -1.12400000
H       -2.93150000       0.06140000       1.14680000
