20
Properties=species:S:1:pos:R:3 gdb_16150=T pbc="F F F"
C       -0.29490000       1.49220000      -0.06720000
C        0.14040000       0.02540000       0.04910000
C        0.84060000      -0.49240000      -1.18920000
C        0.01360000      -1.00790000      -2.34150000
C        0.87630000      -1.97370000      -1.54620000
C        2.23230000      -2.22020000      -2.11370000
C        2.96140000      -1.10230000      -2.14910000
C        2.22430000       0.07410000      -1.54370000
H        0.56510000       2.15080000      -0.22840000
H       -0.98110000       1.63160000      -0.90920000
H       -0.80330000       1.82720000       0.84230000
H        0.80470000      -0.09010000       0.91630000
H       -0.73860000      -0.59870000       0.25310000
H       -1.06060000      -1.05570000      -2.18750000
H        0.31510000      -0.78620000      -3.36070000
H        0.38910000      -2.72520000      -0.93320000
H        2.54890000      -3.19020000      -2.48050000
H        3.95660000      -1.01220000      -2.56970000
H        2.16480000       0.92470000      -2.23490000
H        2.73930000       0.44680000      -0.64580000
