16
Properties=species:S:1:pos:R:3 gdb_47708=T pbc="F F F"
O        0.18690000       0.05000000      -0.77560000
C        0.05980000       1.15070000      -0.29160000
C       -1.28800000       1.78580000       0.00380000
C       -1.57070000       3.07030000      -0.79070000
O       -0.46240000       3.94660000      -0.86890000
C        0.21930000       4.16860000       0.34140000
C        1.34720000       3.16250000       0.59760000
O        2.37530000       3.49420000       1.14160000
N        1.18870000       1.86570000       0.11500000
H       -2.05030000       1.03920000      -0.22580000
H       -1.33830000       1.98960000       1.07940000
H       -1.81770000       2.82600000      -1.82720000
H       -2.43840000       3.58100000      -0.34490000
H        0.71150000       5.14120000       0.27420000
H       -0.45670000       4.20280000       1.20970000
H        2.04460000       1.32260000       0.10590000
