17
Properties=species:S:1:pos:R:3 gdb_38773=T pbc="F F F"
C       -0.00040000       1.50500000      -0.00470000
C        1.41390000       2.05840000       0.01010000
O        1.69410000       3.11140000       0.93640000
C        2.28730000       1.81840000       1.16800000
C        1.83310000       1.07430000       2.37650000
C        1.08730000      -0.03140000       2.37730000
C        0.56680000      -0.73230000       1.16980000
O       -0.85450000      -0.66690000       0.93910000
C        0.01630000      -0.01360000       0.01150000
H       -0.51800000       1.85480000       0.89020000
H       -0.55210000       1.87650000      -0.87420000
H        1.89280000       2.18900000      -0.96140000
H        3.36720000       1.81480000       1.00530000
H        2.17190000       1.48390000       3.32650000
H        0.83510000      -0.49790000       3.32790000
H        0.97450000      -1.73240000       1.00790000
H        0.07400000      -0.50750000      -0.95950000
