19
Properties=species:S:1:pos:R:3 gdb_66584=T pbc="F F F"
C        0.00840000       1.47380000       0.06310000
C        0.00200000      -0.02290000      -0.01430000
C       -0.95300000      -0.89840000       0.81620000
C        0.55100000      -1.04540000       0.95130000
C        0.45940000      -2.07240000      -0.22790000
C       -1.07270000      -2.18830000      -0.00600000
O       -1.73810000      -2.08390000      -1.24980000
C       -0.93000000      -1.23770000      -2.08840000
C        0.30380000      -0.90260000      -1.24610000
H        0.97360000       1.88620000      -0.25300000
H       -0.76680000       1.91200000      -0.57700000
H       -0.17860000       1.81590000       1.08670000
H       -1.65820000      -0.46040000       1.51130000
H        1.19900000      -0.95810000       1.81000000
H        1.09170000      -2.93630000      -0.41610000
H       -1.44780000      -3.06140000       0.52920000
H       -0.68240000      -1.78380000      -3.00860000
H       -1.49750000      -0.34000000      -2.36730000
H        1.19550000      -0.61480000      -1.80550000
