20
Properties=species:S:1:pos:R:3 gdb_103189=T pbc="F F F"
C       -0.03360000       1.59800000       0.00600000
C        0.04920000       0.07400000      -0.00260000
C       -1.34090000      -0.54780000       0.14600000
O       -1.87100000      -0.13450000       1.40100000
C        0.82740000      -0.63740000      -1.10310000
C        2.26790000      -0.73280000      -0.70860000
C        2.45480000      -0.10690000       0.66120000
C        1.04780000      -0.66830000       0.93080000
N        1.28130000      -1.74250000      -0.19010000
H        0.94740000       2.06630000      -0.10110000
H       -0.65660000       1.94570000      -0.82660000
H       -0.49410000       1.95120000       0.93230000
H       -1.98470000      -0.21000000      -0.68300000
H       -1.26050000      -1.64180000       0.08830000
H       -2.72260000      -0.56310000       1.52330000
H        0.50000000      -0.85080000      -2.11640000
H        3.03260000      -1.01810000      -1.42300000
H        3.20690000      -0.65950000       1.23060000
H        2.63480000       0.96730000       0.76200000
H        0.73160000      -0.98260000       1.92290000
