18
Properties=species:S:1:pos:R:3 gdb_66011=T pbc="F F F"
O        0.21860000       1.40060000      -0.27460000
C        0.05950000       0.01680000      -0.04230000
C        1.00090000      -0.79420000      -0.96250000
O        1.74170000      -1.27760000       0.20650000
C        0.95980000      -0.54340000       1.06400000
N        1.01420000      -0.38880000       2.30790000
C       -1.39430000      -0.38100000      -0.00650000
C       -1.87820000      -1.62010000       0.70250000
C       -2.18700000      -0.26110000       1.27630000
H       -0.25630000       1.86200000       0.42660000
H        0.55350000      -1.62480000      -1.51110000
H        1.63520000      -0.18010000      -1.60360000
H        1.79390000      -0.90400000       2.72120000
H       -1.91400000      -0.11100000      -0.92220000
H       -2.67880000      -2.18310000       0.23620000
H       -1.15220000      -2.22720000       1.23150000
H       -1.64640000       0.02170000       2.17280000
H       -3.20260000       0.11220000       1.21100000
