18
Properties=species:S:1:pos:R:3 gdb_95390=T pbc="F F F"
C       -0.13330000       1.52240000       0.00710000
C       -0.02810000       0.02170000       0.00770000
C       -0.10150000      -0.72690000      -1.12900000
N        0.03290000      -2.08280000      -1.18140000
C        0.62330000      -2.76850000      -0.03600000
C       -0.00110000      -2.20380000       1.23690000
O        0.58090000      -2.77320000       2.37280000
C        0.15490000      -0.67390000       1.26650000
O        0.37890000      -0.13670000       2.34520000
H        0.77160000       1.97990000       0.42090000
H       -0.28070000       1.91060000      -1.00500000
H       -0.96640000       1.86490000       0.63090000
H       -0.28780000      -0.25090000      -2.08860000
H        0.20320000      -2.48350000      -2.08940000
H        0.43460000      -3.84190000      -0.11380000
H        1.71320000      -2.61010000       0.00420000
H       -1.08940000      -2.40390000       1.20140000
H        0.70560000      -2.01910000       2.97570000
