17
Properties=species:S:1:pos:R:3 gdb_123920=T pbc="F F F"
C       -0.05840000       1.53860000      -0.01960000
C        1.34920000       2.14120000       0.09880000
N        1.96340000       1.72920000       1.35980000
C        1.87110000       0.39260000       1.67020000
N        2.60860000      -0.21520000       2.57300000
O        2.12050000      -1.53560000       2.59420000
C        1.12580000      -1.64750000       1.70150000
C        0.90280000      -0.47240000       1.06500000
C       -0.02200000      -0.00460000      -0.01960000
H       -0.65730000       1.89320000       0.82650000
H       -0.53230000       1.90420000      -0.93530000
H        1.95260000       1.83950000      -0.77420000
H        1.28940000       3.23340000       0.09190000
H        2.83900000       2.16810000       1.60320000
H        0.67180000      -2.62460000       1.62800000
H       -1.03260000      -0.40670000       0.10850000
H        0.32890000      -0.35900000      -0.99810000
