18
Properties=species:S:1:pos:R:3 gdb_56604=T pbc="F F F"
O       -0.57040000       1.08800000      -0.25530000
C        0.05930000      -0.13780000       0.07440000
C        0.65360000      -0.79380000      -1.09740000
C        1.14100000      -1.33100000      -2.05540000
C        1.11590000       0.09550000       1.18050000
O        1.98230000       1.10380000       0.66290000
C        0.47950000       0.53340000       2.47640000
C        0.17660000      -0.45200000       3.53990000
N        1.27860000       0.51170000       3.72070000
H        0.15400000       1.70180000      -0.43850000
H       -0.72620000      -0.78320000       0.48370000
H        1.56700000      -1.80210000      -2.90660000
H        1.67270000      -0.84130000       1.34460000
H        2.39060000       1.55970000       1.40580000
H       -0.15760000       1.40850000       2.38170000
H       -0.67960000      -0.29760000       4.18920000
H        0.42690000      -1.49470000       3.36020000
H        2.16260000       0.03230000       3.55410000
