19
Properties=species:S:1:pos:R:3 gdb_107950=T pbc="F F F"
C       -0.10250000       1.57220000       0.08940000
C       -0.01720000       0.04150000       0.06780000
C        0.79300000      -0.51070000       1.20030000
O        0.35420000      -0.23080000       2.58200000
C        1.56240000      -1.04430000       2.73290000
C        1.13800000      -2.00640000       1.57400000
C        2.39110000      -2.38390000       0.81350000
C        3.13810000      -1.27350000       0.82780000
C        2.30730000      -0.26900000       1.59670000
H        0.88740000       2.02450000      -0.02880000
H       -0.73810000       1.93830000      -0.72190000
H       -0.51890000       1.92080000       1.03820000
H       -1.02230000      -0.39430000       0.12400000
H        0.43090000      -0.31070000      -0.86960000
H        1.89410000      -1.28000000       3.74710000
H        0.32490000      -2.71220000       1.73700000
H        2.60370000      -3.34420000       0.36450000
H        4.11290000      -1.10090000       0.39300000
H        2.65500000       0.74540000       1.78490000
