19
Properties=species:S:1:pos:R:3 gdb_122036=T pbc="F F F"
C       -0.10330000       1.49980000       0.21400000
C       -0.23950000      -0.00120000      -0.05420000
C        0.71400000      -0.48200000      -1.13750000
O        0.50380000      -1.87860000      -1.32730000
C        1.32850000      -2.44190000      -2.32970000
C        2.76410000      -2.60940000      -1.78540000
O        3.75270000      -2.23570000      -2.35290000
C        0.82440000      -3.76130000      -2.69030000
C        0.47700000      -4.87520000      -2.97640000
H        0.90920000       1.75740000       0.54360000
H       -0.31920000       2.08800000      -0.68470000
H       -0.79790000       1.82090000       0.99500000
H       -0.04350000      -0.57130000       0.86100000
H       -1.26310000      -0.24360000      -0.36080000
H        0.53060000       0.05320000      -2.08350000
H        1.75790000      -0.27960000      -0.84900000
H        1.38290000      -1.79570000      -3.21930000
H        2.78560000      -3.10180000      -0.78870000
H        0.14910000      -5.85080000      -3.23960000
