18
Properties=species:S:1:pos:R:3 gdb_91786=T pbc="F F F"
C       -0.55930000       1.37360000       0.15690000
C        0.07390000      -0.01070000      -0.02860000
N        0.84190000      -0.15330000      -1.29090000
C        2.23550000      -0.42990000      -0.95600000
C        2.95050000       0.66810000      -0.23080000
C        2.41440000      -0.52550000       0.55290000
O        3.27520000      -1.35520000       1.24820000
C        1.04380000      -0.37930000       1.10340000
O        0.75300000      -0.63120000       2.25210000
H        0.19460000       2.16430000       0.11470000
H       -1.28790000       1.56340000      -0.63540000
H       -1.06670000       1.42430000       1.12480000
H       -0.72580000      -0.75990000       0.00460000
H        0.47240000      -0.93420000      -1.81940000
H        2.78210000      -1.06350000      -1.64380000
H        4.03300000       0.66220000      -0.30130000
H        2.49620000       1.64990000      -0.14710000
H        2.86850000      -1.46500000       2.12160000
