20
Properties=species:S:1:pos:R:3 gdb_96684=T pbc="F F F"
C       -0.03210000       1.46930000       0.04610000
N        0.03580000       0.02410000       0.06850000
C        0.55630000      -0.61100000      -0.89450000
C        1.17130000      -0.08580000      -2.17250000
O        0.61790000      -1.96530000      -0.86950000
C        0.06340000      -2.60910000       0.28000000
C        0.26800000      -4.08620000       0.10920000
C       -0.63940000      -5.04990000       0.74250000
O       -0.70800000      -4.79270000      -0.65890000
H        0.40210000       1.94810000      -0.84230000
H       -1.07940000       1.78610000       0.12100000
H        0.47960000       1.87150000       0.92890000
H        2.01590000       0.57460000      -1.95570000
H        1.52140000      -0.91730000      -2.78360000
H        0.44040000       0.49060000      -2.74690000
H        0.56400000      -2.24290000       1.18420000
H       -1.00130000      -2.37090000       0.36860000
H        1.29630000      -4.39200000      -0.08610000
H       -0.26640000      -6.03280000       1.02630000
H       -1.48610000      -4.69000000       1.32620000
