17
Properties=species:S:1:pos:R:3 gdb_98574=T pbc="F F F"
C       -0.04940000       1.36400000      -0.02480000
O       -0.03710000      -0.06980000      -0.05520000
C       -1.23610000      -0.64490000      -0.13240000
O       -2.28920000      -0.05150000      -0.18470000
C       -1.16690000      -2.14110000      -0.13180000
N       -0.11980000      -2.83980000       0.09640000
C       -0.56210000      -4.24510000       0.00590000
C       -2.11770000      -4.20560000      -0.00650000
N       -2.34420000      -2.81240000      -0.40170000
H        0.99600000       1.66450000       0.03450000
H       -0.51480000       1.76320000      -0.92950000
H       -0.60370000       1.72480000       0.84540000
H       -0.16670000      -4.67590000      -0.92340000
H       -0.15380000      -4.83070000       0.83380000
H       -2.55940000      -4.90510000      -0.72080000
H       -2.53810000      -4.41640000       0.98730000
H       -3.20900000      -2.33920000      -0.18610000
