19
Properties=species:S:1:pos:R:3 gdb_111040=T pbc="F F F"
C        0.05180000       1.55230000       0.08240000
C        0.09590000       0.02130000       0.17710000
C       -1.29000000      -0.59550000       0.08920000
C       -2.07820000      -0.81590000      -1.23690000
C       -1.13600000      -1.97410000      -1.63800000
C       -1.54090000      -2.12720000      -0.14530000
O       -2.93190000      -1.79880000      -0.52110000
C       -1.30610000      -3.25690000       0.80170000
O       -0.20500000      -3.63820000       1.10990000
H        1.05300000       1.98030000       0.18750000
H       -0.35210000       1.88100000      -0.88120000
H       -0.57890000       1.98050000       0.86880000
H        0.75850000      -0.37510000      -0.59820000
H        0.54080000      -0.27490000       1.13480000
H       -1.95190000      -0.21800000       0.87470000
H       -2.59060000      -0.09220000      -1.87070000
H       -1.58100000      -2.71730000      -2.30000000
H       -0.09470000      -1.76090000      -1.87770000
H       -2.23430000      -3.70960000       1.21490000
