15
Properties=species:S:1:pos:R:3 gdb_87544=T pbc="F F F"
C        0.01270000       1.57310000      -0.05830000
C       -0.08700000       0.07980000       0.09750000
O        1.11640000      -0.68710000      -0.12040000
C        0.57420000      -0.64670000       1.18110000
C        1.31300000      -0.17870000       2.43440000
O        0.30030000      -0.13710000       3.43870000
C        0.94410000      -1.40510000       3.18830000
C        0.23080000      -1.95340000       1.94300000
O       -0.23740000      -3.00220000       1.62520000
H        0.92300000       1.95780000       0.40840000
H        0.02650000       1.84660000      -1.11800000
H       -0.85160000       2.05880000       0.40600000
H       -0.97220000      -0.39030000      -0.33220000
H        2.19420000       0.44040000       2.53970000
H        1.43010000      -1.90350000       4.01770000
