20
Properties=species:S:1:pos:R:3 gdb_93788=T pbc="F F F"
C       -0.09880000       1.50010000       0.13170000
C       -0.09160000       0.00130000      -0.12610000
C        0.81190000      -0.42780000      -1.27380000
C        0.85980000      -1.95140000      -1.33340000
C        1.46660000      -2.49350000      -0.03620000
N        2.93000000      -2.34170000      -0.06160000
C        1.00170000      -1.75580000       1.22910000
O        1.29990000      -2.17150000       2.31950000
O        0.28820000      -0.61970000       1.13170000
H        0.91270000       1.85710000       0.34670000
H       -0.47760000       2.03100000      -0.74700000
H       -0.73770000       1.73890000       0.98560000
H       -1.11680000      -0.33740000      -0.33240000
H        0.42280000       0.00000000      -2.20340000
H        1.82310000      -0.03530000      -1.11930000
H       -0.15330000      -2.35240000      -1.46260000
H        1.45100000      -2.30170000      -2.18630000
H        1.14800000      -3.53660000       0.11710000
H        3.29390000      -2.59460000       0.85300000
H        3.32330000      -3.00030000      -0.72780000
