21
Properties=species:S:1:pos:R:3 gdb_89998=T pbc="F F F"
C        0.01780000       1.64580000       0.07380000
C        0.01550000       0.11270000       0.06120000
C        0.70920000      -0.50970000      -1.18140000
C        1.47670000      -1.75530000      -0.68340000
C        0.97960000      -3.16780000      -1.11770000
O        2.22480000      -3.46660000      -1.77320000
C        2.76240000      -2.17280000      -1.44370000
C        1.56870000      -1.51550000       0.79880000
C        0.77880000      -0.52270000       1.20310000
H        1.04190000       2.03430000       0.04620000
H       -0.51900000       2.04660000      -0.79250000
H       -0.46570000       2.03690000       0.97540000
H       -1.03280000      -0.21950000       0.10970000
H        0.01010000      -0.74150000      -1.99000000
H        1.43220000       0.21180000      -1.58150000
H        0.76620000      -3.86730000      -0.29930000
H        0.13240000      -3.16820000      -1.81730000
H        2.98220000      -1.57660000      -2.34000000
H        3.67250000      -2.24620000      -0.83380000
H        2.18560000      -2.13580000       1.44150000
H        0.65430000      -0.20080000       2.23220000
