20
Properties=species:S:1:pos:R:3 gdb_86885=T pbc="F F F"
C       -0.02190000       1.61410000      -0.04860000
C        0.10470000       0.08700000      -0.05240000
C        0.82850000      -0.43860000      -1.31360000
C        2.31670000      -0.55640000      -0.85510000
O        2.34690000      -0.26730000       0.53250000
C        1.02400000      -0.46700000       1.05640000
C        0.95130000       0.16570000       2.43340000
C        2.86960000      -1.89970000      -1.12340000
N        3.29760000      -2.95120000      -1.33960000
H        0.96190000       2.09400000      -0.07440000
H       -0.58440000       1.95270000      -0.92430000
H       -0.54740000       1.97310000       0.84090000
H       -0.89100000      -0.36090000       0.02590000
H        0.44600000      -1.41710000      -1.61070000
H        0.72980000       0.23210000      -2.16940000
H        2.96060000       0.17210000      -1.35860000
H        0.83900000      -1.54990000       1.14930000
H        1.18740000       1.23180000       2.39480000
H       -0.05210000       0.04280000       2.85250000
H        1.66420000      -0.31750000       3.10640000
