20
Properties=species:S:1:pos:R:3 gdb_8437=T pbc="F F F"
C       -0.05480000       1.53440000       0.00590000
C        0.04300000       0.03560000       0.01970000
C       -0.81250000      -0.83880000       0.89930000
C        0.68200000      -0.91690000       1.03590000
C        1.24480000      -1.79060000      -0.08920000
C        0.63340000      -0.79410000      -1.14080000
C       -0.30670000      -1.34510000      -2.20600000
O        1.64530000       0.00550000      -1.74380000
H        0.87180000       1.98060000      -0.36410000
H       -0.87360000       1.87740000      -0.63850000
H       -0.24700000       1.91920000       1.01300000
H       -1.33080000      -0.30500000       1.69020000
H       -1.37360000      -1.68300000       0.50370000
H        1.18850000      -0.67950000       1.96390000
H        2.33470000      -1.77520000      -0.15270000
H        0.89150000      -2.82800000      -0.11410000
H       -1.12520000      -1.92390000      -1.76960000
H       -0.73300000      -0.52770000      -2.79600000
H        0.23540000      -2.01090000      -2.89010000
H        2.09210000      -0.53570000      -2.40360000
