20
Properties=species:S:1:pos:R:3 gdb_66638=T pbc="F F F"
C       -0.05200000       1.50370000      -0.02520000
C        0.05000000       0.01130000       0.01920000
C        0.44490000      -1.00460000      -0.98310000
C        0.91770000      -1.99120000       0.09410000
C       -0.22460000      -3.01840000       0.10590000
C       -1.31400000      -1.96030000       0.37020000
C       -0.85860000      -1.39360000       1.72830000
C        0.48980000      -0.89740000       1.18570000
N       -0.99130000      -0.84730000      -0.61290000
H        0.92770000       1.97030000       0.12580000
H       -0.44450000       1.82790000      -0.99310000
H       -0.72690000       1.87800000       0.75340000
H        0.73880000      -0.92620000      -2.02500000
H        1.94900000      -2.33780000       0.09070000
H       -0.33450000      -3.52440000      -0.85800000
H       -0.16490000      -3.76820000       0.90080000
H       -2.35380000      -2.26960000       0.27260000
H       -1.48600000      -0.57320000       2.09080000
H       -0.79140000      -2.16070000       2.50570000
H        1.24850000      -0.54280000       1.88100000
