17
Properties=species:S:1:pos:R:3 gdb_14852=T pbc="F F F"
O       -0.02660000       1.34860000      -0.37640000
C        0.03070000      -0.06600000      -0.28400000
C       -1.35290000      -0.53750000       0.13400000
C       -2.43570000      -0.36590000      -0.96800000
C       -2.30070000      -1.87040000      -1.32350000
C       -1.56700000      -2.09000000       0.03910000
C       -0.40510000      -2.96350000       0.06600000
N        0.52910000      -3.64580000       0.07040000
H        0.84090000       1.66860000      -0.64030000
H        0.31210000      -0.51890000      -1.24860000
H        0.77420000      -0.39600000       0.45720000
H       -1.59160000      -0.10570000       1.10850000
H       -3.41640000      -0.12330000      -0.55190000
H       -2.20070000       0.35690000      -1.75040000
H       -3.21530000      -2.44680000      -1.47090000
H       -1.63530000      -2.04760000      -2.17050000
H       -2.26950000      -2.42130000       0.80850000
