20
Properties=species:S:1:pos:R:3 gdb_12784=T pbc="F F F"
C       -0.22390000       1.32630000       0.09210000
O        0.33240000       0.05090000      -0.12870000
C        0.77660000      -0.57420000       1.04990000
C       -0.28270000      -1.20540000       2.02330000
C        0.39910000      -2.55990000       1.81210000
C        0.35850000      -2.90890000       0.35070000
C        1.41090000      -1.94500000       0.83030000
C        2.88450000      -2.17620000       0.65390000
H        0.50300000       2.01280000       0.55540000
H       -0.51700000       1.72840000      -0.88080000
H       -1.11340000       1.28370000       0.73890000
H        1.45470000       0.09830000       1.59900000
H       -0.20860000      -0.81440000       3.04060000
H       -1.32490000      -1.14600000       1.69190000
H        0.57730000      -3.30320000       2.57980000
H        0.73640000      -3.89350000       0.09260000
H       -0.46260000      -2.56590000      -0.27310000
H        3.22300000      -1.83150000      -0.33040000
H        3.46880000      -1.64180000       1.41220000
H        3.13020000      -3.24040000       0.73270000
