15
Properties=species:S:1:pos:R:3 gdb_20818=T pbc="F F F"
C        0.17430000       1.53340000       0.16020000
C       -0.09350000       0.03410000      -0.05950000
C        0.64130000      -0.49800000      -1.25920000
C        1.73260000      -1.37250000      -1.15710000
N        2.38980000      -1.82440000      -2.21890000
N        1.99180000      -1.42750000      -3.42650000
C        0.95150000      -0.59750000      -3.48940000
N        0.24570000      -0.10450000      -2.46860000
H        1.23350000       1.72040000       0.36310000
H       -0.10820000       2.10290000      -0.72890000
H       -0.40540000       1.90490000       1.00950000
H        0.19310000      -0.53760000       0.82910000
H       -1.16580000      -0.12150000      -0.22080000
H        2.08960000      -1.72360000      -0.19300000
H        0.65260000      -0.29720000      -4.49010000
