15
Properties=species:S:1:pos:R:3 gdb_20383=T pbc="F F F"
C        0.02040000       1.44360000       0.07510000
C        1.50540000       1.90160000      -0.11480000
C        2.18420000       0.57570000       0.03060000
C        1.29210000      -0.45950000      -0.08120000
N       -0.02530000       0.00130000      -0.30690000
C        2.06700000      -1.63350000      -0.03930000
N        3.36650000      -1.32940000       0.09230000
N        3.41730000       0.02060000       0.10930000
H       -0.25700000       1.57800000       1.13030000
H       -0.67480000       2.02480000      -0.53620000
H        1.66360000       2.33320000      -1.11240000
H        1.78720000       2.66220000       0.61950000
H       -0.73880000      -0.50190000       0.20640000
H        1.76770000      -2.66960000      -0.08450000
H        4.31150000       0.46670000       0.21600000
