20
Properties=species:S:1:pos:R:3 gdb_72996=T pbc="F F F"
C       -0.28020000       1.34810000       0.02720000
C       -0.09410000      -0.14420000       0.08770000
C       -0.81750000      -1.09600000      -0.87320000
C       -1.07080000      -1.99610000       0.35900000
N       -0.41040000      -1.01210000       1.28660000
C        1.00690000      -0.86220000       0.81720000
C        1.84540000      -1.98140000       0.23880000
C        1.74810000      -0.02630000       1.82430000
O        2.94880000      -0.00290000       1.93240000
H        0.24000000       1.75530000      -0.84780000
H       -1.34250000       1.59610000      -0.07070000
H        0.10390000       1.85880000       0.91200000
H       -1.73510000      -0.65190000      -1.26590000
H       -0.24360000      -1.50020000      -1.71130000
H       -2.12460000      -2.08960000       0.62740000
H       -0.61680000      -2.99040000       0.36640000
H        1.43710000      -2.40100000      -0.68060000
H        2.84360000      -1.58990000       0.03010000
H        1.96110000      -2.79100000       0.96750000
H        1.08950000       0.56290000       2.49470000
