23
Properties=species:S:1:pos:R:3 gdb_119355=T pbc="F F F"
C       -0.14190000       1.48250000       0.01210000
C       -0.01610000      -0.03100000       0.00280000
O       -1.32410000      -0.58560000       0.01060000
C       -1.36620000      -1.96060000       0.00420000
C       -0.82130000      -2.95910000       1.07660000
C       -1.54380000      -3.82380000      -0.00340000
C       -1.69700000      -5.32000000      -0.00940000
C       -2.68640000      -2.75710000       0.01090000
C       -0.83850000      -2.94860000      -1.08620000
H        0.84870000       1.94740000       0.00630000
H       -0.69310000       1.82700000      -0.86740000
H       -0.67810000       1.81740000       0.90450000
H        0.53120000      -0.36990000      -0.89020000
H        0.54580000      -0.37970000       0.88280000
H        0.26360000      -3.08010000       1.14720000
H       -1.28980000      -2.91950000       2.06430000
H       -2.23700000      -5.66470000       0.87920000
H       -2.25380000      -5.65580000      -0.89100000
H       -0.72030000      -5.81630000      -0.02110000
H       -3.28890000      -2.69690000       0.92170000
H       -3.30330000      -2.68820000      -0.88970000
H       -1.32260000      -2.89950000      -2.06590000
H        0.24520000      -3.06880000      -1.17520000
