19
Properties=species:S:1:pos:R:3 gdb_115659=T pbc="F F F"
O       -0.01190000       1.40900000      -0.22910000
C        0.09890000       0.01660000      -0.01110000
C       -1.27300000      -0.58900000       0.22770000
O       -2.13770000      -0.30020000      -0.90430000
C       -2.43380000      -1.70050000      -1.09620000
C       -1.48760000      -2.10850000       0.04740000
C       -0.35880000      -3.14850000      -0.10020000
C       -1.04780000      -3.85350000       1.08320000
O       -2.05970000      -2.82330000       1.15080000
H       -0.68440000       1.51490000      -0.91360000
H        0.57930000      -0.48570000      -0.86710000
H        0.74020000      -0.12450000       0.86630000
H       -1.71030000      -0.21280000       1.16110000
H       -3.48510000      -1.93530000      -0.89120000
H       -2.16460000      -2.04710000      -2.10160000
H       -0.36190000      -3.69640000      -1.04440000
H        0.64970000      -2.78070000       0.09440000
H       -1.48140000      -4.83690000       0.86900000
H       -0.46690000      -3.91330000       2.01030000
