20
Properties=species:S:1:pos:R:3 gdb_81924=T pbc="F F F"
C        0.12610000       1.61520000      -0.13910000
C        0.05750000       0.09100000      -0.02720000
C        0.68000000      -0.62410000      -1.22510000
N        2.14570000      -0.59250000      -1.20340000
C        1.42220000      -1.83180000      -0.77300000
C        1.30600000      -1.89590000       0.72250000
O        1.55160000      -2.85480000       1.41050000
C        0.74570000      -0.54970000       1.22280000
C        1.85960000       0.26540000       1.90450000
H        1.16030000       1.95610000      -0.23170000
H       -0.42190000       1.95890000      -1.02320000
H       -0.31930000       2.10200000       0.73410000
H       -0.99940000      -0.20540000      -0.00340000
H        0.16640000      -0.61160000      -2.18210000
H        2.50620000      -0.75980000      -2.14030000
H        1.52430000      -2.74210000      -1.35150000
H       -0.00720000      -0.78580000       1.98160000
H        2.65670000       0.51320000       1.20080000
H        1.46390000       1.19360000       2.32670000
H        2.28890000      -0.32130000       2.72180000
