12
Properties=species:S:1:pos:R:3 gdb_1380=T pbc="F F F"
N        0.97420000       0.10840000      -0.49790000
C       -0.12540000       0.54370000      -0.03270000
N       -1.29340000      -0.16540000      -0.25440000
C       -2.54270000       0.20370000       0.19730000
N       -2.75850000       1.25720000       0.88030000
C       -3.64130000      -0.76430000      -0.19510000
O       -4.78750000      -0.58990000       0.11870000
H        1.73600000       0.73720000      -0.25150000
H       -0.29370000       1.44980000       0.55170000
H       -1.19000000      -1.01460000      -0.79220000
H       -3.75760000       1.30400000       1.09030000
H       -3.32660000      -1.64930000      -0.79230000
