21
Properties=species:S:1:pos:R:3 gdb_60267=T pbc="F F F"
C       -0.03250000       1.56320000       0.14270000
C       -0.01940000       0.03900000       0.10220000
O        0.61300000      -0.40340000       1.29140000
C       -1.43440000      -0.54800000      -0.03470000
C       -1.44620000      -2.06140000      -0.29350000
O       -0.74240000      -2.77180000       0.74830000
C       -1.60500000      -3.70780000       1.39800000
C       -2.91030000      -3.59820000       0.66350000
C       -2.81650000      -2.68220000      -0.29240000
H        0.98280000       1.93840000       0.29710000
H       -0.42080000       1.98020000      -0.79170000
H       -0.65390000       1.91740000       0.97170000
H        0.56530000      -0.28050000      -0.78130000
H        0.42650000      -1.34930000       1.36930000
H       -2.00120000      -0.32820000       0.87820000
H       -1.95180000      -0.06230000      -0.87230000
H       -0.91720000      -2.25530000      -1.24140000
H       -1.16490000      -4.71440000       1.33510000
H       -1.69790000      -3.45800000       2.46600000
H       -3.77690000      -4.19830000       0.90960000
H       -3.59190000      -2.38180000      -0.98540000
