13
Properties=species:S:1:pos:R:3 gdb_34780=T pbc="F F F"
N       -0.25080000      -1.14090000       0.04390000
C       -0.10970000       0.00620000       0.04640000
C        0.01650000       1.43930000       0.04530000
C        0.52550000       2.21980000       1.22960000
O        1.50570000       1.48130000       1.95250000
C        2.41180000       1.55640000       0.81770000
C        3.01600000       0.28500000       0.42120000
N        3.55360000      -0.68250000       0.09180000
C        1.33090000       2.20960000      -0.04560000
H       -0.77780000       1.94980000      -0.49330000
H       -0.03550000       2.98140000       1.75610000
H        3.21300000       2.26910000       1.04330000
H        1.50440000       2.95890000      -0.80430000
