20
Properties=species:S:1:pos:R:3 gdb_60789=T pbc="F F F"
C        0.07600000       1.59230000       0.15910000
C       -0.00210000       0.06490000       0.03950000
C       -1.45960000      -0.38110000       0.08760000
O       -1.84370000      -1.41690000       0.56590000
C        0.69480000      -0.52280000      -1.24720000
C        0.81030000      -2.06090000      -1.13810000
C       -0.05110000      -0.14180000      -2.54800000
C        2.05790000       0.03050000      -1.31250000
N        3.12940000       0.46160000      -1.36490000
H        1.11230000       1.93640000       0.13750000
H       -0.46570000       2.09190000      -0.65070000
H       -0.36930000       1.92090000       1.10320000
H        0.49240000      -0.39930000       0.89920000
H       -2.18080000       0.34180000      -0.35900000
H       -0.18150000      -2.50680000      -1.04020000
H        1.29520000      -2.46810000      -2.02910000
H        1.40100000      -2.34810000      -0.26460000
H       -0.16330000       0.93960000      -2.65350000
H        0.49910000      -0.50900000      -3.41780000
H       -1.04390000      -0.60120000      -2.56020000
