18
Properties=species:S:1:pos:R:3 gdb_79567=T pbc="F F F"
C        0.13390000       1.50280000       0.03510000
C       -0.09690000       0.02290000      -0.03780000
C       -0.99940000      -0.74340000       0.84770000
N        0.47720000      -0.91810000       0.98470000
C        1.03300000      -1.75840000      -0.13740000
C        0.13660000      -2.24310000      -1.26010000
O       -1.16430000      -2.76560000      -1.21180000
C        0.50550000      -0.80200000      -1.20920000
O        1.20970000      -0.17150000      -2.22050000
H        1.15180000       1.75550000      -0.27530000
H       -0.56130000       2.04130000      -0.61990000
H       -0.01800000       1.85610000       1.05870000
H       -1.40520000      -0.20210000       1.69940000
H       -1.61250000      -1.54580000       0.46640000
H        2.01620000      -2.18480000       0.02350000
H        0.76690000      -2.73310000      -2.00830000
H       -1.10840000      -3.65290000      -0.83880000
H        0.61560000      -0.04420000      -2.96910000
