18
Properties=species:S:1:pos:R:3 gdb_81812=T pbc="F F F"
C       -0.03670000       1.52710000       0.03410000
C        0.03180000       0.02810000       0.01350000
C       -0.83820000      -0.87020000       0.84320000
C        0.65530000      -0.95830000       1.01260000
C        1.25000000      -1.79060000      -0.11150000
O        0.80430000      -3.11730000      -0.12220000
C        0.62130000      -0.77430000      -1.16520000
C       -0.28650000      -1.32890000      -2.15590000
N       -0.99560000      -1.80320000      -2.93700000
H        0.91830000       1.97820000      -0.25890000
H       -0.80580000       1.89640000      -0.65420000
H       -0.28700000       1.89130000       1.03530000
H       -1.35850000      -0.36990000       1.65360000
H       -1.38550000      -1.69600000       0.39990000
H        1.14610000      -0.75430000       1.95600000
H        2.34460000      -1.72760000      -0.15150000
H        1.09960000      -3.54280000      -0.93480000
H        1.41150000      -0.21780000      -1.67720000
