19
Properties=species:S:1:pos:R:3 gdb_56594=T pbc="F F F"
C       -0.09350000       1.58760000      -0.26060000
C        0.01810000       0.07880000      -0.02830000
C        0.75980000      -0.59500000      -1.21470000
O        2.14520000      -0.34660000      -1.15800000
C        0.47320000      -2.04740000      -1.24580000
N        0.24200000      -3.17900000      -1.27620000
N        0.74120000      -0.35440000       1.18080000
C        1.33600000       0.60280000       2.11560000
C        0.12340000      -0.17310000       2.48540000
H        0.89080000       2.03030000      -0.43570000
H       -0.71620000       1.78210000      -1.13910000
H       -0.56260000       2.09360000       0.58830000
H       -0.98770000      -0.35290000       0.02600000
H        0.40580000      -0.16920000      -2.15960000
H        2.42210000      -0.65540000      -0.28330000
H        2.30990000       0.32070000       2.50600000
H        1.21490000       1.66670000       1.93530000
H       -0.81640000       0.37560000       2.52880000
H        0.18410000      -1.02210000       3.16030000
