21
Properties=species:S:1:pos:R:3 gdb_93719=T pbc="F F F"
C       -0.09920000       1.54950000      -0.03180000
C        0.07120000       0.03260000      -0.00150000
C        0.95300000      -0.52470000      -1.13640000
O        1.64130000      -1.66810000      -0.62500000
C        1.27970000      -1.89960000       0.74690000
C        2.52170000      -2.41840000       1.47440000
C        0.78510000      -0.52300000       1.23890000
C        0.19400000      -2.89630000       0.81700000
C       -0.69010000      -3.70900000       0.87740000
H        0.86930000       2.05600000       0.05040000
H       -0.56920000       1.87760000      -0.96510000
H       -0.72980000       1.89460000       0.79380000
H       -0.91570000      -0.44030000      -0.06380000
H        0.36580000      -0.81170000      -2.01680000
H        1.70120000       0.21520000      -1.45510000
H        3.32450000      -1.67990000       1.39900000
H        2.29940000      -2.60410000       2.52890000
H        2.86040000      -3.35320000       1.02170000
H        1.65520000       0.09520000       1.49090000
H        0.14230000      -0.59420000       2.11850000
H       -1.46830000      -4.43040000       0.92240000
