17
Properties=species:S:1:pos:R:3 gdb_61755=T pbc="F F F"
C       -0.01940000       1.16290000       0.15420000
N       -0.26610000      -0.24420000      -0.14320000
C       -0.21870000      -1.11350000       1.02230000
C       -1.47220000      -0.97050000       1.87020000
O       -1.49860000      -1.08990000       3.06570000
C        0.08010000      -0.78580000      -1.36980000
N        0.46030000      -1.99810000      -1.50240000
C       -0.16690000       0.07750000      -2.59810000
O        0.26030000      -0.22950000      -3.68030000
H        0.98620000       1.31510000       0.57290000
H       -0.11030000       1.78340000      -0.73700000
H       -0.74830000       1.52150000       0.88780000
H       -0.16240000      -2.14730000       0.66390000
H        0.66600000      -0.93290000       1.64700000
H       -2.39240000      -0.76520000       1.27520000
H        0.58350000      -2.19660000      -2.49650000
H       -0.81600000       0.96600000      -2.46940000
