14
Properties=species:S:1:pos:R:3 gdb_29260=T pbc="F F F"
O       -0.09370000       1.37060000      -0.17980000
C       -0.00110000       0.02910000      -0.01200000
C        1.14250000      -0.65830000       0.09900000
O        1.21260000      -2.02020000       0.26880000
C        0.07020000      -2.76850000       0.33460000
N        0.07120000      -4.02450000       0.48910000
N       -1.11140000      -2.06260000       0.22080000
C       -1.28210000      -0.68850000       0.04730000
N       -2.39530000      -0.07720000      -0.05360000
H        0.79140000       1.75110000      -0.20630000
H        2.13090000      -0.21760000       0.06720000
H        1.02270000      -4.37740000       0.55430000
H       -1.93550000      -2.64330000       0.27340000
H       -3.18600000      -0.72110000       0.00780000
