17
Properties=species:S:1:pos:R:3 gdb_46606=T pbc="F F F"
N       -0.01580000       1.31410000       0.12470000
C       -0.06680000       0.04920000       0.06910000
O        1.06740000      -0.77200000       0.06210000
C        0.69290000      -2.15250000      -0.04020000
C       -0.80000000      -2.09760000      -0.05320000
C       -1.21550000      -0.82610000       0.01610000
C       -2.71350000      -0.77050000      -0.09020000
C       -3.07420000      -2.28620000       0.07000000
N       -1.80880000      -3.02210000      -0.22650000
H        0.95400000       1.63000000       0.15910000
H        1.11320000      -2.58150000      -0.95950000
H        1.10990000      -2.70400000       0.81310000
H       -3.19880000      -0.15400000       0.67090000
H       -3.03380000      -0.38690000      -1.06670000
H       -3.39760000      -2.49250000       1.09860000
H       -3.86810000      -2.60860000      -0.60750000
H       -1.70860000      -3.92420000       0.21900000
