20
Properties=species:S:1:pos:R:3 gdb_111838=T pbc="F F F"
O        0.17570000       0.86450000      -1.31990000
C        0.01730000       0.23420000      -0.05520000
C       -1.32620000      -0.45960000       0.03210000
C       -1.48020000      -1.93360000      -0.21300000
C       -0.32710000      -2.84800000      -0.40310000
C        0.27080000      -3.41490000       0.64520000
C       -0.17680000      -3.11400000       2.05400000
C       -0.74420000      -1.69160000       2.17900000
N       -1.71910000      -1.36620000       1.11770000
H        0.15210000       0.17290000      -1.98930000
H        0.84010000      -0.46290000       0.14910000
H        0.07410000       1.04180000       0.68380000
H       -2.13760000       0.18850000      -0.29860000
H       -2.39260000      -2.25480000      -0.71890000
H       -0.02930000      -3.08900000      -1.42090000
H        1.07870000      -4.12720000       0.50290000
H       -0.93500000      -3.84930000       2.35890000
H        0.65420000      -3.23000000       2.75810000
H       -1.26210000      -1.58220000       3.13860000
H        0.09050000      -0.98160000       2.19300000
