24
Properties=species:S:1:pos:R:3 gdb_117170=T pbc="F F F"
C       -0.27410000       1.13010000       1.06210000
C       -0.11360000      -0.03650000       0.10490000
O       -1.35870000      -0.74940000       0.08130000
C       -1.42440000      -1.84300000      -0.70790000
N       -0.42980000      -2.19740000      -1.41430000
C       -2.79230000      -2.49690000      -0.56480000
C       -3.07990000      -3.49550000      -1.68940000
C       -2.91580000      -3.12490000       0.84480000
C       -4.32690000      -3.60290000       1.19930000
H        0.65690000       1.70290000       1.11110000
H       -1.07350000       1.79970000       0.73180000
H       -0.51580000       0.77910000       2.06960000
H        0.12840000       0.29550000      -0.91020000
H        0.68450000      -0.71840000       0.41680000
H       -0.64710000      -3.03590000      -1.94720000
H       -3.52350000      -1.67980000      -0.62280000
H       -2.42170000      -4.37010000      -1.62670000
H       -4.10910000      -3.85780000      -1.63240000
H       -2.94330000      -3.03680000      -2.67320000
H       -2.20950000      -3.96220000       0.91930000
H       -2.59230000      -2.37840000       1.57630000
H       -4.36050000      -3.97530000       2.22790000
H       -5.05220000      -2.78540000       1.11880000
H       -4.66530000      -4.41430000       0.54770000
