17
Properties=species:S:1:pos:R:3 gdb_40905=T pbc="F F F"
C        0.18730000       1.40720000      -0.27850000
C        1.62200000       1.48100000       0.29310000
C        1.29310000       0.10130000       0.84010000
O       -0.02130000       0.08750000       0.28960000
C        2.11190000      -1.16510000       0.91920000
O        3.51290000      -1.03770000       0.97010000
C        3.82260000      -0.16540000       2.04530000
O        2.69420000      -0.07690000       2.90090000
C        1.57820000      -0.53880000       2.17770000
H       -0.52440000       2.13430000       0.12600000
H        0.11020000       1.38970000      -1.37060000
H        2.42410000       1.50740000      -0.44670000
H        1.79040000       2.25120000       1.04790000
H        1.76970000      -2.09950000       0.49050000
H        4.67220000      -0.57010000       2.60700000
H        4.07380000       0.83320000       1.65500000
H        0.79130000      -0.95140000       2.79790000
