16
Properties=species:S:1:pos:R:3 gdb_33951=T pbc="F F F"
N        0.08660000      -1.16060000       0.01320000
C        0.06500000      -0.00340000       0.02920000
C        0.02970000       1.42650000       0.06430000
C        0.30510000       2.24370000      -1.19260000
C        1.29740000       2.28710000      -0.07220000
C        1.23640000       3.39860000       0.97900000
C       -0.12300000       3.27490000       1.65190000
O       -1.24590000       3.42560000       0.76760000
C       -0.83610000       2.10410000       1.11850000
H        0.58390000       1.68480000      -2.07830000
H       -0.35070000       3.08990000      -1.35230000
H        2.24840000       1.79310000      -0.23290000
H        2.02000000       3.24410000       1.72850000
H        1.38590000       4.39400000       0.54780000
H       -0.27470000       3.66420000       2.65550000
H       -1.55180000       1.50910000       1.67680000
