17
Properties=species:S:1:pos:R:3 gdb_112496=T pbc="F F F"
C       -0.19790000       1.56700000      -0.06670000
C        0.17180000       0.08290000      -0.00640000
N        0.78380000      -0.40280000      -1.22540000
C        0.25910000      -0.59180000      -2.58000000
C        1.65380000      -1.17950000      -2.97020000
C        2.39990000      -0.47570000      -3.99280000
N        2.98850000       0.09980000      -4.80450000
C        2.04110000      -0.87800000      -1.47280000
O        3.01830000      -1.02040000      -0.79490000
H        0.68840000       2.18150000      -0.24730000
H       -0.92230000       1.76630000      -0.86270000
H       -0.64850000       1.87970000       0.87980000
H        0.90090000      -0.10220000       0.78790000
H       -0.71700000      -0.52220000       0.21630000
H       -0.56870000      -1.30550000      -2.64530000
H       -0.00480000       0.33380000      -3.09870000
H        1.63770000      -2.25180000      -3.17800000
