17
Properties=species:S:1:pos:R:3 gdb_17860=T pbc="F F F"
C       -0.05230000       1.56070000      -0.13750000
C       -0.02990000       0.05880000       0.01370000
N        1.30420000      -0.60040000      -0.11920000
C        0.61420000      -0.63360000       1.14050000
C        1.15550000      -0.30120000       2.54180000
C       -0.20500000      -0.74560000       3.13440000
C        0.24300000      -1.79040000       2.08160000
O        1.61470000      -1.71290000       2.64410000
H        0.83260000       2.00430000       0.32600000
H       -0.05840000       1.84560000      -1.19490000
H       -0.94440000       1.98880000       0.33280000
H       -0.87380000      -0.46160000      -0.44000000
H        1.23750000      -1.48950000      -0.60840000
H        1.84290000       0.47840000       2.86700000
H       -0.15180000      -1.09800000       4.16460000
H       -1.08950000      -0.13920000       2.92360000
H       -0.16050000      -2.77980000       1.86220000
