15
Properties=species:S:1:pos:R:3 gdb_123597=T pbc="F F F"
C       -0.02820000       1.51070000      -0.06780000
C        1.53400000       1.35340000      -0.00710000
C        1.15000000       0.16410000       0.94530000
N       -0.09590000      -0.02470000       0.05660000
C        0.60080000      -0.34390000      -1.17800000
C        0.69000000      -1.09900000      -2.28600000
O        1.77470000      -0.69260000      -3.00630000
N        2.42690000       0.38260000      -2.33550000
C        1.70530000       0.55020000      -1.27370000
H       -0.45530000       1.97240000       0.82530000
H       -0.48160000       1.91270000      -0.97520000
H        2.22180000       2.15320000       0.25610000
H        1.80840000      -0.70470000       0.99390000
H        0.84560000       0.48550000       1.94390000
H        0.12900000      -1.91280000      -2.71580000
