21
Properties=species:S:1:pos:R:3 gdb_39040=T pbc="F F F"
C       -0.08720000       1.52890000       0.10950000
C        1.21810000       0.77130000      -0.05770000
C        2.32020000       0.41910000       0.91830000
C        2.67190000      -1.05280000       0.71380000
C        1.83040000      -2.05010000       0.40070000
C        0.31570000      -2.01140000       0.29570000
C       -0.26510000      -0.92750000       1.24740000
C       -0.07850000       0.02940000       0.06940000
C       -0.26800000      -1.14820000      -0.89340000
H       -0.32800000       1.97110000       1.07280000
H       -0.43140000       2.11210000      -0.73930000
H        1.58330000       0.79400000      -1.08330000
H        3.21350000       1.03330000       0.75710000
H        2.01500000       0.60790000       1.95560000
H        3.72770000      -1.30180000       0.80080000
H        2.27170000      -3.03340000       0.25000000
H       -0.09050000      -3.02230000       0.38300000
H       -1.32710000      -1.09740000       1.45680000
H        0.26080000      -0.74430000       2.18630000
H        0.28500000      -1.12690000      -1.83550000
H       -1.31350000      -1.41920000      -1.07960000
