20
Properties=species:S:1:pos:R:3 gdb_124614=T pbc="F F F"
C       -0.05840000       1.55180000      -0.00760000
C       -0.00140000       0.02090000       0.02340000
C        0.74680000      -0.51310000       1.24930000
N       -1.35700000      -0.53970000      -0.02930000
N       -2.22860000      -0.27300000       0.96780000
N       -3.34740000      -0.87880000       0.68910000
C       -3.20270000      -1.53930000      -0.48950000
C       -1.92840000      -1.33640000      -0.97260000
C       -1.24640000      -1.82160000      -2.20750000
H        0.95520000       1.96330000      -0.00990000
H       -0.57840000       1.90740000      -0.90150000
H       -0.58930000       1.92750000       0.87020000
H        0.49770000      -0.33590000      -0.88260000
H        0.24070000      -0.20110000       2.16580000
H        0.79150000      -1.60570000       1.23690000
H        1.76940000      -0.12490000       1.26100000
H       -4.00520000      -2.11550000      -0.92230000
H       -0.92270000      -0.99700000      -2.85250000
H       -0.36350000      -2.42980000      -1.98060000
H       -1.93530000      -2.44190000      -2.78490000
