14
Properties=species:S:1:pos:R:3 gdb_15763=T pbc="F F F"
C       -0.02750000       0.84400000      -1.13970000
C        0.01200000      -0.33300000      -0.29060000
C        0.04420000      -1.30820000       0.41970000
C        0.04360000      -2.46300000       1.28960000
O       -0.83220000      -2.67910000       2.10190000
C        1.19520000      -3.41940000       1.14020000
C        1.67940000      -3.81550000      -0.19850000
O        2.41830000      -2.91280000       0.60820000
H        0.96860000       1.09530000      -1.51800000
H       -0.68340000       0.67550000      -2.00110000
H       -0.41570000       1.70880000      -0.59140000
H        1.28440000      -4.12130000       1.96700000
H        2.10990000      -4.80800000      -0.32090000
H        1.21680000      -3.38050000      -1.08230000
