21
Properties=species:S:1:pos:R:3 gdb_39355=T pbc="F F F"
C        0.01660000       1.52110000       0.29060000
C        1.29550000       0.78330000      -0.02100000
C        2.29570000       0.41270000       1.06750000
C        1.66220000      -0.09190000       2.39390000
C        0.58500000      -1.13470000       2.16480000
C       -0.18110000      -0.99790000       1.08900000
C       -1.20320000      -1.75760000       0.25880000
C       -0.85240000      -0.80490000      -0.94550000
C       -0.01200000       0.03380000       0.03430000
H       -0.17660000       1.87740000       1.29760000
H       -0.38120000       2.16130000      -0.49140000
H        1.72910000       0.97540000      -0.99930000
H        2.94210000      -0.38180000       0.67250000
H        2.94910000       1.26530000       1.28790000
H        2.45860000      -0.50190000       3.02430000
H        1.25930000       0.76300000       2.95410000
H        0.49280000      -1.96970000       2.85320000
H       -1.01850000      -2.82500000       0.10930000
H       -2.23440000      -1.63370000       0.60570000
H       -0.26500000      -1.29890000      -1.72460000
H       -1.70070000      -0.29740000      -1.41130000
