17
Properties=species:S:1:pos:R:3 gdb_31450=T pbc="F F F"
C        0.05780000       1.53230000       0.25870000
C       -0.03230000       0.03810000      -0.09700000
C       -1.43110000      -0.46440000      -0.19510000
C       -2.17960000      -0.97110000      -1.20780000
C       -3.48210000      -1.26890000      -0.65880000
C       -3.40840000      -0.91020000       0.65810000
O       -2.18020000      -0.42420000       0.95190000
C       -4.59820000      -1.81480000      -1.33290000
C       -5.53890000      -2.28030000      -1.92340000
H        1.10250000       1.84750000       0.33640000
H       -0.43020000       2.14570000      -0.50460000
H       -0.43120000       1.73290000       1.21580000
H        0.45840000      -0.15230000      -1.05660000
H        0.51230000      -0.54690000       0.65550000
H       -1.86630000      -1.12620000      -2.22770000
H       -4.11940000      -0.94440000       1.46620000
H       -6.37180000      -2.69010000      -2.43820000
