17
Properties=species:S:1:pos:R:3 gdb_66743=T pbc="F F F"
O       -0.00950000       1.47140000       0.40660000
C       -0.00900000       0.11180000       0.17220000
C       -1.20980000      -0.90260000       0.26200000
C       -0.11590000      -1.91490000       0.52650000
C       -0.62720000      -1.57810000      -0.94140000
C        0.39840000      -0.49390000      -1.20780000
C        1.73090000      -0.68200000      -1.29840000
C        2.28490000      -0.63910000       0.13100000
C        0.94480000      -0.81680000       0.92740000
H       -0.27660000       1.91740000      -0.40530000
H       -2.22050000      -0.82700000       0.63630000
H       -0.21340000      -2.91610000       0.92720000
H       -1.04140000      -2.36250000      -1.56290000
H        2.20520000      -1.29800000      -2.05700000
H        3.00960000      -1.45420000       0.24340000
H        2.78560000       0.27940000       0.46300000
H        1.00990000      -0.70360000       2.01390000
