19
Properties=species:S:1:pos:R:3 gdb_22720=T pbc="F F F"
C        0.08610000       1.47840000      -0.29540000
C        0.00730000       0.01120000       0.14840000
C       -1.40560000      -0.49160000       0.21390000
C       -2.46710000      -0.10560000       1.27840000
C       -2.96390000      -1.54700000       1.17430000
N       -3.78250000      -2.28020000       1.80480000
O       -4.49600000      -1.53020000       2.76020000
C       -1.96240000      -1.90260000       0.12910000
N       -2.06070000      -0.95630000      -0.99840000
H        1.12500000       1.81790000      -0.33960000
H       -0.35530000       1.60580000      -1.28860000
H       -0.44950000       2.13470000       0.39900000
H        0.56400000      -0.61890000      -0.55320000
H        0.47720000      -0.10740000       1.13270000
H       -2.05980000       0.09920000       2.27370000
H       -3.15910000       0.69840000       1.00890000
H       -5.05700000      -2.20070000       3.16430000
H       -1.48210000      -2.85870000      -0.03690000
H       -3.00530000      -0.59360000      -1.11620000
