9
Properties=species:S:1:pos:R:3 gdb_3822=T pbc="F F F"
N       -0.01400000      -1.10320000      -0.00330000
C       -0.01300000       0.05240000       0.00310000
C       -0.00130000       1.47900000       0.01090000
N       -1.12660000       2.18780000       0.02980000
N       -0.65350000       3.44590000       0.03050000
C        0.69790000       3.44960000       0.01250000
N        1.15050000       2.21430000      -0.00030000
H       -1.29920000       4.21990000       0.04330000
H        1.29030000       4.35180000       0.00970000
