16
Properties=species:S:1:pos:R:3 gdb_84469=T pbc="F F F"
O       -0.00930000       1.44850000      -0.04960000
C        0.06280000       0.03400000      -0.03990000
C        0.72870000      -0.51390000       1.21710000
C       -0.07000000      -1.32140000       1.91230000
C       -1.40390000      -1.46170000       1.23240000
N       -2.11210000      -0.13160000       1.14080000
C       -1.32250000      -0.62600000      -0.00080000
C       -2.17660000      -2.66140000       1.32660000
C       -2.82590000      -3.66870000       1.43220000
H       -0.63730000       1.67370000       0.65110000
H        0.60990000      -0.24270000      -0.94790000
H        1.71710000      -0.18520000       1.51590000
H        0.15030000      -1.80400000       2.85610000
H       -3.09940000      -0.30650000       0.95740000
H       -1.83040000      -0.90700000      -0.91570000
H       -3.39490000      -4.56140000       1.51590000
