15
Properties=species:S:1:pos:R:3 gdb_2349=T pbc="F F F"
C        0.20430000       0.72060000       1.03950000
C       -0.05050000       0.40860000      -0.41770000
O        0.63920000       0.82090000      -1.32190000
C       -1.27000000      -0.45930000      -0.72120000
C       -1.10610000      -1.54140000      -1.80500000
C       -1.44860000      -2.52350000      -0.66560000
O       -1.54870000      -1.44620000       0.29780000
H        1.09550000       1.34110000       1.13730000
H       -0.66120000       1.23860000       1.46940000
H        0.31330000      -0.21130000       1.60160000
H       -2.12750000       0.21660000      -0.86650000
H       -1.82200000      -1.49960000      -2.62570000
H       -0.09590000      -1.60820000      -2.20920000
H       -2.40080000      -3.05570000      -0.77150000
H       -0.66690000      -3.24100000      -0.39120000
