20
Properties=species:S:1:pos:R:3 gdb_97806=T pbc="F F F"
C       -0.05330000       1.49050000      -0.01840000
C       -0.11030000       0.04940000       0.49990000
C       -1.43060000      -0.61310000       0.18540000
N       -1.60870000      -1.11390000      -1.18010000
C       -1.56860000      -2.08750000      -0.05700000
C       -0.45520000      -2.99290000       0.00530000
C        0.46760000      -3.76610000       0.07450000
C        1.58700000      -4.69640000       0.20570000
O        2.51730000      -4.33170000       1.21750000
H        0.91300000       1.95190000       0.20560000
H       -0.19760000       1.51230000      -1.10290000
H       -0.83250000       2.11190000       0.43770000
H        0.69410000      -0.54300000       0.05410000
H        0.04490000       0.03100000       1.58620000
H       -2.29740000      -0.14930000       0.65800000
H       -2.57160000      -0.99950000      -1.48620000
H       -2.51930000      -2.52410000       0.24370000
H        1.19550000      -5.71340000       0.37070000
H        2.16060000      -4.72820000      -0.72740000
H        2.01480000      -4.16810000       2.02230000
