17
Properties=species:S:1:pos:R:3 gdb_97268=T pbc="F F F"
C       -0.06010000       1.43930000      -0.04230000
N       -0.09180000      -0.00860000       0.00370000
C        0.52890000      -0.62940000      -0.90900000
N        0.54790000      -2.02440000      -0.93850000
C       -0.16930000      -2.73690000       0.11390000
C        1.24640000      -2.64830000      -1.96300000
O        1.84040000      -2.03900000      -2.83260000
C        1.23880000      -4.10250000      -1.95390000
C        1.30310000      -5.29980000      -2.04920000
H        0.51730000       1.84630000      -0.88680000
H       -1.08420000       1.82540000      -0.10290000
H        0.36820000       1.82510000       0.89000000
H        1.08840000      -0.17740000      -1.73020000
H       -1.22610000      -2.45910000       0.09670000
H       -0.06350000      -3.80840000      -0.04190000
H        0.23310000      -2.45950000       1.09120000
H        1.35860000      -6.35810000      -2.13230000
