17
Properties=species:S:1:pos:R:3 gdb_86846=T pbc="F F F"
C       -0.04680000       1.36760000       0.11100000
N       -0.04960000      -0.07460000       0.12880000
C       -1.21900000      -0.85450000      -0.21090000
C       -0.68960000      -2.31210000      -0.08170000
N        0.73310000      -2.10980000      -0.36230000
C        1.11300000      -0.80190000      -0.04150000
O        2.24800000      -0.38930000       0.04890000
C       -0.94270000      -2.90040000       1.23630000
C       -1.13740000      -3.40520000       2.30940000
H        0.97940000       1.69580000       0.28500000
H       -0.38970000       1.76720000      -0.85480000
H       -0.69360000       1.76830000       0.89920000
H       -2.05430000      -0.66450000       0.46820000
H       -1.55450000      -0.66080000      -1.24170000
H       -1.14560000      -2.94740000      -0.84810000
H        1.38560000      -2.82850000      -0.08600000
H       -1.30780000      -3.84580000       3.26100000
