18
Properties=species:S:1:pos:R:3 gdb_9122=T pbc="F F F"
C       -0.02920000       1.58820000       0.01660000
C        0.02060000       0.05030000      -0.02300000
C        0.68910000      -0.48140000      -1.20270000
C        1.24340000      -0.92190000      -2.18130000
C        1.91010000      -1.44530000      -3.35830000
O        2.02410000      -2.63770000      -3.55370000
C        2.45030000      -0.39650000      -4.31990000
C        3.14170000      -0.99580000      -5.54140000
H        0.97910000       2.01050000       0.01230000
H       -0.56540000       1.98270000      -0.85050000
H       -0.54110000       1.92660000       0.92190000
H        0.53030000      -0.33060000       0.87140000
H       -0.99730000      -0.35830000       0.01870000
H        1.61090000       0.25110000      -4.60730000
H        3.12750000       0.25490000      -3.75090000
H        2.45340000      -1.62670000      -6.10940000
H        3.51170000      -0.20500000      -6.19980000
H        3.98570000      -1.62320000      -5.24390000
