21
Properties=species:S:1:pos:R:3 gdb_71069=T pbc="F F F"
C       -0.25840000       1.49710000      -0.15110000
C        0.03940000       0.02360000      -0.05880000
C        0.77900000      -0.73950000      -1.20680000
C        0.09800000      -1.97410000      -0.64160000
C        0.72050000      -2.99980000      -0.05420000
C        0.40110000      -3.20430000       1.40380000
C        0.71920000      -1.79630000       2.02430000
C       -0.10840000      -0.71300000       1.30930000
C       -0.92200000      -1.13790000       0.12020000
H        0.64370000       2.09770000       0.01660000
H       -0.65140000       1.75950000      -1.14030000
H       -1.00070000       1.80090000       0.59450000
H        0.37980000      -0.37460000      -2.16120000
H        1.87400000      -0.73810000      -1.24430000
H        1.68000000      -3.34980000      -0.43000000
H       -0.65190000      -3.44130000       1.58650000
H        1.00470000      -3.98950000       1.86620000
H        0.46800000      -1.78310000       3.09210000
H        1.79740000      -1.61460000       1.95560000
H       -0.63320000      -0.05320000       1.99900000
H       -2.00300000      -1.17440000       0.05770000
