21
Properties=species:S:1:pos:R:3 gdb_119895=T pbc="F F F"
O       -0.12200000       1.48600000      -0.13270000
C        0.02760000       0.07860000      -0.02950000
C       -1.37610000      -0.52860000       0.05770000
C       -1.36980000      -2.03550000       0.09710000
C       -1.50490000      -2.74100000       1.22130000
C       -1.52490000      -4.24670000       1.23320000
C       -1.76710000      -4.77510000      -0.18170000
O       -0.92220000      -4.12510000      -1.11620000
C       -1.20760000      -2.74660000      -1.22900000
H        0.75440000       1.87960000      -0.17230000
H        0.56570000      -0.32820000      -0.90030000
H        0.60000000      -0.20270000       0.86790000
H       -1.86600000      -0.12680000       0.95040000
H       -1.94860000      -0.16950000      -0.80780000
H       -1.61470000      -2.22480000       2.17300000
H       -0.57650000      -4.63920000       1.62570000
H       -2.31090000      -4.61520000       1.90490000
H       -1.54380000      -5.84300000      -0.25780000
H       -2.82460000      -4.62770000      -0.45790000
H       -2.12030000      -2.58720000      -1.83530000
H       -0.37760000      -2.31430000      -1.80030000
