17
Properties=species:S:1:pos:R:3 gdb_40635=T pbc="F F F"
C        0.45990000       1.76570000       0.25580000
C        1.04790000       0.50330000      -0.27630000
N       -0.32870000       0.53940000       0.20310000
C       -0.59970000      -0.10880000       1.44530000
C       -1.99960000      -0.10720000       1.99580000
O       -3.03390000       0.18520000       1.07280000
C       -2.97660000      -0.80530000       0.14320000
N       -2.14270000      -1.75120000       0.30080000
C       -1.38620000      -1.41220000       1.48050000
H        0.80990000       2.10720000       1.22860000
H        0.14490000       2.55740000      -0.41770000
H        1.16960000       0.35610000      -1.34530000
H        1.79030000       0.00040000       0.34110000
H        0.16970000      -0.05040000       2.22140000
H       -2.24450000       0.17290000       3.01230000
H       -3.68350000      -0.70340000      -0.67010000
H       -1.03710000      -2.23400000       2.09400000
