21
Properties=species:S:1:pos:R:3 gdb_114340=T pbc="F F F"
C       -0.03180000       1.43630000       0.12770000
C       -0.00380000      -0.09170000       0.03910000
C        0.64570000      -0.58320000      -1.23710000
O        2.01750000      -0.20120000      -1.29520000
C        2.64320000      -1.16180000      -2.11500000
C        3.08880000      -2.44640000      -1.43990000
C        3.25540000      -2.57530000       0.05430000
C        1.73310000      -2.35420000      -2.11660000
O        0.63960000      -2.00520000      -1.29830000
H        0.98210000       1.84440000       0.10490000
H       -0.58870000       1.87340000      -0.70840000
H       -0.51240000       1.76260000       1.05420000
H        0.54090000      -0.51950000       0.88720000
H       -1.02010000      -0.49990000       0.06830000
H        0.12610000      -0.18200000      -2.12740000
H        3.14710000      -0.76300000      -2.98930000
H        3.81640000      -3.00040000      -2.03130000
H        2.50160000      -1.99450000       0.58610000
H        3.16080000      -3.62050000       0.36590000
H        4.24190000      -2.21680000       0.36590000
H        1.48270000      -2.94370000      -2.99250000
