16
Properties=species:S:1:pos:R:3 gdb_43051=T pbc="F F F"
O       -0.00300000       0.05410000       0.06610000
C       -0.04800000       1.25060000       0.04040000
C       -1.23990000       2.20220000       0.00790000
N       -0.83720000       3.04110000       1.20810000
C        0.24820000       3.53510000       0.29380000
C       -0.64850000       3.33260000      -0.94220000
O        0.11240000       2.94740000      -2.05830000
C        1.36460000       2.44710000      -1.54040000
C        1.10430000       2.27900000      -0.03090000
H       -2.24370000       1.78620000      -0.03950000
H       -1.52330000       3.79150000       1.29910000
H        0.76410000       4.46160000       0.54160000
H       -1.36240000       4.11490000      -1.20400000
H        1.60600000       1.50370000      -2.03790000
H        2.16500000       3.17150000      -1.74220000
H        1.97910000       2.06090000       0.57810000
