19
Properties=species:S:1:pos:R:3 gdb_119135=T pbc="F F F"
N       -0.94360000       1.47820000       0.45530000
H       -2.07430000       0.94950000       1.61580000
H       -0.71420000       0.65810000      -0.09870000
H       -1.20400000       2.21270000      -0.19400000
C        0.20350000       1.87930000       1.28860000
C        0.32080000       1.00000000       2.54440000
C       -0.69630000       1.26470000       3.65260000
C       -0.18580000       1.40490000       5.04270000
N       -0.66120000       2.59500000       4.32290000
C       -2.12700000       0.71940000       3.55570000
O       -2.75180000       0.43310000       4.54580000
O       -2.64920000       0.57160000       2.33960000
H        1.15050000       1.84170000       0.73270000
H        0.04820000       2.92220000       1.58450000
H        0.28670000      -0.05730000       2.24950000
H        1.32030000       1.16210000       2.96410000
H       -0.83110000       1.08290000       5.85120000
H        0.88230000       1.28200000       5.20190000
H        0.13790000       3.11920000       3.96860000
