21
Properties=species:S:1:pos:R:3 gdb_37798=T pbc="F F F"
C       -0.02560000       1.51220000       0.08020000
C        1.41470000       1.99490000       0.05020000
C        2.30590000       0.80740000       0.36550000
C        1.40600000      -0.39140000       0.64250000
C        0.05530000      -0.03330000      -0.02630000
C        0.00930000      -0.55930000      -1.47380000
O        1.25860000      -0.53940000      -2.13420000
C        1.83030000       0.74350000      -2.29430000
C        2.31800000       1.42390000      -1.01800000
H       -0.48170000       1.79860000       1.03520000
H       -0.64930000       1.94460000      -0.71160000
H        1.63460000       2.98600000       0.43290000
H        3.19660000       0.92260000       0.97400000
H        1.81080000      -1.33520000       0.26770000
H        1.27940000      -0.49010000       1.72730000
H       -0.78740000      -0.48880000       0.50420000
H       -0.28640000      -1.61360000      -1.47250000
H       -0.74470000      -0.00120000      -2.05520000
H        2.68920000       0.58600000      -2.95460000
H        1.12750000       1.40760000      -2.82800000
H        3.19680000       2.03570000      -1.20840000
