17
Properties=species:S:1:pos:R:3 gdb_32768=T pbc="F F F"
C       -0.21520000       1.37810000      -0.25260000
O       -0.28500000      -0.02820000      -0.33320000
C        0.91980000      -0.60760000      -0.81550000
C        0.69060000      -2.06240000      -0.99230000
C       -0.36110000      -2.80010000      -1.44680000
N       -1.57620000      -2.37320000      -1.96050000
N       -0.03910000      -4.14790000      -1.37680000
C        1.16410000      -4.16140000      -0.89690000
O        1.68380000      -2.95280000      -0.62860000
H        0.57020000       1.70500000       0.44600000
H       -0.01420000       1.83470000      -1.23430000
H       -1.18210000       1.73140000       0.11280000
H        1.20260000      -0.11480000      -1.76340000
H        1.75010000      -0.44650000      -0.10960000
H       -1.86260000      -1.48500000      -1.57000000
H       -2.29540000      -3.07790000      -1.86970000
H        1.78690000      -5.01820000      -0.69310000
