18
Properties=species:S:1:pos:R:3 gdb_27288=T pbc="F F F"
O        0.00170000       1.40070000      -0.06870000
C        0.00220000       0.03150000      -0.03460000
C        0.12540000      -0.77140000      -1.14570000
C        0.34720000      -0.72590000      -2.62450000
C        0.03260000      -2.19340000      -3.03920000
C        0.29890000      -3.04330000      -1.77240000
N        0.07330000      -2.07900000      -0.71000000
C       -0.06600000      -2.12980000       0.64310000
C       -0.12260000      -0.82280000       1.09900000
H       -0.11980000       1.72290000       0.82860000
H       -0.29720000      -0.00930000      -3.14190000
H        1.38310000      -0.46000000      -2.87620000
H       -1.02350000      -2.27620000      -3.31150000
H        0.62450000      -2.53260000      -3.89210000
H       -0.37490000      -3.90080000      -1.68520000
H        1.33070000      -3.41890000      -1.74480000
H       -0.12960000      -3.06450000       1.17620000
H       -0.25920000      -0.51410000       2.12570000
