15
Properties=species:S:1:pos:R:3 gdb_11171=T pbc="F F F"
O        0.04240000      -0.04310000       0.21720000
C       -0.00990000       1.16460000       0.17200000
C       -1.26520000       2.03850000       0.07570000
C       -0.76210000       3.46500000       0.40010000
C        0.73320000       3.41640000      -0.03150000
N        1.06300000       2.02050000       0.18030000
C       -1.51360000       4.54500000      -0.21760000
C       -2.13150000       5.43290000      -0.74140000
H       -1.64920000       1.97780000      -0.94820000
H       -2.04670000       1.68250000       0.74740000
H       -0.78370000       3.59180000       1.48920000
H        0.84080000       3.71830000      -1.08210000
H        1.35250000       4.07930000       0.57930000
H        1.99730000       1.65410000       0.08790000
H       -2.68250000       6.21780000      -1.19760000
