23
Properties=species:S:1:pos:R:3 gdb_119605=T pbc="F F F"
C       -0.02380000       1.60210000      -0.15760000
C       -0.04640000       0.07270000      -0.11020000
C       -1.45530000      -0.49620000       0.11010000
C       -1.48420000      -1.99890000       0.19010000
C       -1.51360000      -2.88140000      -1.03720000
C       -2.67900000      -2.87730000      -0.05710000
C       -2.66080000      -3.92220000       1.04590000
C       -1.22260000      -3.80760000       1.60010000
O       -0.77550000      -2.48520000       1.31220000
H        0.99080000       1.98140000      -0.31500000
H       -0.65170000       1.98530000      -0.97040000
H       -0.39820000       2.03330000       0.77780000
H        0.36200000      -0.33410000      -1.04400000
H        0.60650000      -0.28720000       0.69240000
H       -1.87410000      -0.08820000       1.03950000
H       -2.11740000      -0.17570000      -0.70390000
H       -1.67630000      -2.39450000      -1.99310000
H       -0.86590000      -3.75050000      -1.08840000
H       -3.63070000      -2.46590000      -0.37430000
H       -3.39890000      -3.65820000       1.81080000
H       -2.88140000      -4.93820000       0.70380000
H       -1.15780000      -3.95760000       2.68160000
H       -0.56230000      -4.54400000       1.12070000
