18
Properties=species:S:1:pos:R:3 gdb_54009=T pbc="F F F"
C        0.00040000       0.79430000       2.27700000
C       -0.11980000       0.30120000       0.86560000
N        0.67470000       0.67180000      -0.04510000
N       -1.22610000      -0.61350000       0.61670000
C       -1.15390000      -1.91460000       1.12250000
N       -0.12510000      -2.31700000       1.74930000
C       -2.38530000      -0.22330000      -0.08050000
C       -2.44650000       1.21990000      -0.53780000
O       -3.28340000      -1.00900000      -0.29120000
H        0.18070000      -0.05430000       2.94190000
H        0.82810000       1.49990000       2.34640000
H       -0.92850000       1.27890000       2.59800000
H        0.45970000       0.20910000      -0.93070000
H       -2.05740000      -2.48030000       0.89460000
H       -0.25130000      -3.28340000       2.04370000
H       -1.77190000       1.39130000      -1.38140000
H       -3.46930000       1.41940000      -0.85560000
H       -2.15680000       1.91750000       0.25240000
