18
Properties=species:S:1:pos:R:3 gdb_54559=T pbc="F F F"
N        0.08630000       1.11720000      -0.65580000
C       -0.04580000       0.03090000       0.15910000
O        0.83530000      -0.33260000       0.91870000
C       -1.36360000      -0.68060000       0.04600000
C       -2.60160000      -0.39720000      -0.83450000
C       -2.98550000      -1.64670000      -0.01960000
C       -1.53740000      -2.24270000      -0.08530000
C       -1.47210000      -2.46270000       1.43890000
C       -2.24790000      -1.14190000       1.26780000
H        0.94750000       1.63800000      -0.62760000
H       -0.64470000       1.40990000      -1.27910000
H       -3.16250000       0.51950000      -0.62020000
H       -2.48250000      -0.53410000      -1.91530000
H       -3.91350000      -2.21930000      -0.04100000
H       -1.12620000      -2.84700000      -0.89560000
H       -2.04330000      -3.31120000       1.82930000
H       -0.48620000      -2.39160000       1.89870000
H       -2.65940000      -0.47150000       2.02430000
