21
Properties=species:S:1:pos:R:3 gdb_111324=T pbc="F F F"
C        0.07350000       1.63260000       0.04060000
C       -0.09750000       0.11030000       0.00730000
C        0.65580000      -0.54380000      -1.14700000
C        2.20180000      -0.56400000      -1.14560000
C        2.73760000      -1.46940000      -0.07280000
C        2.20840000      -2.08520000      -1.34230000
C        0.69590000      -2.08310000      -1.29220000
C       -0.24070000      -3.12610000      -0.86790000
O       -0.10060000      -2.75320000      -2.25070000
H        1.12760000       1.90810000       0.15220000
H       -0.29330000       2.09250000      -0.88390000
H       -0.47690000       2.07730000       0.87540000
H        0.23780000      -0.31760000       0.96000000
H       -1.16330000      -0.13820000      -0.08030000
H        0.29630000      -0.14010000      -2.10100000
H        2.82960000       0.17170000      -1.63250000
H        3.81810000      -1.47910000       0.02970000
H        2.20600000      -1.60570000       0.86560000
H        2.81090000      -2.69590000      -2.00270000
H        0.13190000      -4.11740000      -0.61190000
H       -1.19220000      -2.85610000      -0.41130000
