17
Properties=species:S:1:pos:R:3 gdb_88146=T pbc="F F F"
O       -0.08560000       1.40590000      -0.03420000
C       -0.03670000       0.01270000       0.01850000
C       -0.51150000      -0.70610000       1.23980000
C       -1.38340000      -0.66380000      -0.00920000
C       -2.69670000       0.08700000      -0.12380000
O       -3.65640000      -0.89530000      -0.53650000
C       -3.00220000      -1.88180000      -1.30880000
C       -1.55460000      -1.91050000      -0.81520000
O       -0.72150000      -2.75480000      -1.03500000
H        0.63490000       1.75350000       0.50210000
H        0.74680000      -0.46060000      -0.57320000
H       -0.05720000      -1.66200000       1.47970000
H       -0.84660000      -0.10630000       2.07970000
H       -3.05020000       0.51500000       0.81690000
H       -2.62380000       0.89510000      -0.86640000
H       -3.50010000      -2.84570000      -1.17130000
H       -3.00590000      -1.64210000      -2.38670000
