16
Properties=species:S:1:pos:R:3 gdb_7260=T pbc="F F F"
C       -0.06290000       1.64270000       0.52300000
C       -0.14100000       0.23280000      -0.04410000
O        0.70840000      -0.68700000       0.65130000
C       -1.58120000      -0.29300000      -0.11490000
N       -2.56110000       0.49880000      -0.25400000
N       -1.62590000      -1.69860000      -0.05640000
C       -2.73770000      -2.49070000      -0.16640000
O       -3.87030000      -2.10030000      -0.34650000
H        0.96680000       2.00630000       0.48030000
H       -0.71520000       2.31080000      -0.04040000
H       -0.40430000       1.65790000       1.56460000
H        0.24620000       0.23020000      -1.07130000
H        0.59490000      -0.53060000       1.59600000
H       -3.43570000      -0.02150000      -0.33460000
H       -0.73370000      -2.13640000       0.13470000
H       -2.48250000      -3.56380000      -0.07180000
