18
Properties=species:S:1:pos:R:3 gdb_15113=T pbc="F F F"
C        0.05120000      -1.10010000      -0.38050000
C        0.06990000       0.08030000      -0.16170000
C        0.05760000       1.51220000       0.10890000
O        1.36320000       2.03890000      -0.00330000
C        1.40570000       3.43080000       0.25930000
C        2.83010000       3.90080000       0.17450000
C        3.43390000       4.23070000      -1.16510000
C        3.11680000       5.33630000      -0.19060000
H        0.04260000      -2.14400000      -0.57540000
H       -0.62620000       2.01520000      -0.59750000
H       -0.34940000       1.69420000       1.11920000
H        0.78200000       3.97740000      -0.47030000
H        0.98660000       3.63800000       1.25950000
H        3.48950000       3.44150000       0.90480000
H        4.47300000       3.97350000      -1.33540000
H        2.80150000       4.12690000      -2.04040000
H        2.27430000       5.98350000      -0.41250000
H        3.93640000       5.83650000       0.31260000
