21
Properties=species:S:1:pos:R:3 gdb_107986=T pbc="F F F"
C       -0.03760000       1.55780000       0.05940000
C        0.05300000       0.02870000      -0.01410000
C        0.75660000      -0.46680000      -1.25230000
C        2.19880000      -0.17390000      -1.74310000
C        1.62040000      -1.11500000      -2.82200000
C        0.93900000      -1.96670000      -1.70100000
C       -0.40540000      -2.42100000      -2.25320000
O       -0.82010000      -1.23670000      -2.95880000
C        0.26770000      -0.35790000      -2.73350000
H        0.95750000       2.01460000       0.06430000
H       -0.58530000       1.96200000      -0.79830000
H       -0.55660000       1.87820000       0.96770000
H        0.57210000      -0.35450000       0.87450000
H       -0.95760000      -0.39930000       0.01070000
H        2.42150000       0.85240000      -2.05120000
H        3.00890000      -0.57920000      -1.13070000
H        2.10630000      -1.49230000      -3.72220000
H        1.53010000      -2.65240000      -1.09240000
H       -0.32940000      -3.26630000      -2.94880000
H       -1.13770000      -2.67210000      -1.47550000
H        0.10290000       0.59990000      -3.22650000
