18
Properties=species:S:1:pos:R:3 gdb_65483=T pbc="F F F"
C       -0.54590000       1.65270000      -0.01020000
C        0.01410000       0.23830000      -0.07110000
C        0.84820000      -0.14800000      -1.32970000
C        1.98230000      -0.33570000      -0.33190000
C        2.98000000      -1.43520000      -0.20670000
C        3.42850000       0.00750000      -0.41880000
O        1.17660000       0.08080000       0.78110000
C       -1.01950000      -0.75250000       0.27590000
N       -1.83780000      -1.52680000       0.53360000
H        0.23980000       2.36360000      -0.27780000
H       -1.38530000       1.76520000      -0.70300000
H       -0.89530000       1.87770000       1.00080000
H        0.51780000      -1.04380000      -1.85550000
H        0.97140000       0.67560000      -2.03560000
H        3.12160000      -1.85990000       0.78110000
H        3.08150000      -2.13980000      -1.02580000
H        3.83810000       0.29180000      -1.38290000
H        3.86420000       0.52260000       0.43070000
