19
Properties=species:S:1:pos:R:3 gdb_55954=T pbc="F F F"
C        0.01560000       1.43840000      -0.10810000
C       -0.09930000      -0.05860000       0.06020000
O       -0.35510000      -0.62810000       1.09210000
O        0.12790000      -0.68540000      -1.11300000
C        0.06860000      -2.13260000      -1.09430000
C       -1.39570000      -2.61580000      -1.23330000
C       -1.51830000      -2.95150000      -2.69950000
C       -0.33690000      -2.95320000      -3.31350000
C        0.79200000      -2.61800000      -2.36870000
H        1.00690000       1.69910000      -0.48910000
H       -0.71590000       1.78930000      -0.84160000
H       -0.15630000       1.92570000       0.85080000
H        0.53080000      -2.47090000      -0.16710000
H       -1.57660000      -3.49640000      -0.60280000
H       -2.09830000      -1.84800000      -0.89520000
H       -2.46850000      -3.18510000      -3.16640000
H       -0.17030000      -3.19000000      -4.35810000
H        1.46560000      -1.84130000      -2.74550000
H        1.41170000      -3.49970000      -2.15780000
