17
Properties=species:S:1:pos:R:3 gdb_47764=T pbc="F F F"
O        0.04210000      -0.03740000      -0.10040000
C       -0.02760000       1.16130000      -0.00650000
C       -1.31900000       1.95500000       0.01440000
C       -1.30550000       3.05440000      -1.07200000
C       -0.01880000       3.88680000      -0.99000000
N        1.20870000       3.08150000      -1.03590000
C        1.25700000       2.04150000       0.00160000
C        1.44200000       2.64460000       1.32850000
N        1.54080000       3.09850000       2.38690000
H       -2.15690000       1.26460000      -0.10450000
H       -1.40200000       2.42820000       1.00240000
H       -1.37210000       2.58520000      -2.06210000
H       -2.18680000       3.69660000      -0.96490000
H        0.02830000       4.60990000      -1.80960000
H       -0.00160000       4.46280000      -0.05650000
H        1.29480000       2.62690000      -1.94010000
H        2.10240000       1.37570000      -0.19480000
