17
Properties=species:S:1:pos:R:3 gdb_20935=T pbc="F F F"
C       -0.03130000       1.53180000       0.03630000
C       -0.05120000       0.01130000      -0.07670000
N        0.84370000      -0.43560000      -1.13660000
C        0.89590000      -1.80630000      -1.40920000
C        1.42240000      -2.42570000      -2.53110000
N        1.29880000      -3.76510000      -2.31610000
N        0.73440000      -4.06640000      -1.14260000
C        0.48180000      -2.88170000      -0.58280000
H        0.98360000       1.89340000       0.22550000
H       -0.39270000       2.00110000      -0.88640000
H       -0.67840000       1.86630000       0.85180000
H        0.29350000      -0.42990000       0.86650000
H       -1.08630000      -0.34220000      -0.22790000
H        0.73870000       0.12080000      -1.97490000
H        1.86330000      -2.02700000      -3.43040000
H        1.57650000      -4.51020000      -2.93090000
H        0.01610000      -2.83950000       0.38960000
