17
Properties=species:S:1:pos:R:3 gdb_17775=T pbc="F F F"
O        1.62980000       2.63250000       2.54500000
C        1.27450000       2.94530000       1.43880000
C        1.48460000       2.09260000       0.19620000
N        1.56030000       2.95360000      -0.97680000
C        1.75860000       2.32260000      -2.34490000
C        2.22430000       3.72660000      -2.81010000
C        2.93000000       3.41670000      -1.46530000
C        3.24320000       1.99430000      -2.01470000
H        0.74020000       3.89980000       1.23410000
H        2.32510000       1.41070000       0.38710000
H        0.58230000       1.47020000       0.09450000
H        0.99660000       1.67900000      -2.78860000
H        2.85450000       3.76710000      -3.69940000
H        1.46690000       4.50960000      -2.77550000
H        3.56110000       4.07360000      -0.86470000
H        3.43530000       1.20230000      -1.29130000
H        3.93940000       1.92910000      -2.85500000
