18
Properties=species:S:1:pos:R:3 gdb_10842=T pbc="F F F"
O       -0.08790000       1.46090000       0.03230000
C        0.02000000       0.04590000      -0.00390000
C        0.78850000      -0.50330000       1.20470000
C        0.82580000      -2.04310000       1.20340000
C       -0.57030000      -2.64260000       1.07000000
O       -0.97030000      -3.52590000       1.79090000
C       -1.41390000      -2.04810000      -0.05180000
C       -1.40370000      -0.50880000      -0.03160000
H        0.80020000       1.82880000       0.08160000
H        0.53940000      -0.27310000      -0.92600000
H        1.81200000      -0.10760000       1.21310000
H        0.29920000      -0.13840000       2.11620000
H        1.41490000      -2.39000000       0.34190000
H        1.29430000      -2.44350000       2.10510000
H       -0.98770000      -2.40080000      -1.00250000
H       -2.42670000      -2.44990000       0.02260000
H       -1.93050000      -0.14040000       0.85710000
H       -1.93460000      -0.11130000      -0.90180000
