16
Properties=species:S:1:pos:R:3 gdb_131483=T pbc="F F F"
O        0.03390000       1.23850000       1.11030000
C        0.06800000       0.12940000       0.26590000
C       -0.52160000      -1.19520000       0.65420000
C       -1.16830000      -0.36410000      -0.45490000
C       -2.46790000       0.30160000      -0.20890000
C       -2.77070000       1.63090000      -0.26190000
O       -4.06840000       1.83910000      -0.00220000
N       -4.68320000       0.61210000       0.23840000
C       -3.73320000      -0.27830000       0.11540000
H       -0.82880000       1.27010000       1.53820000
H        0.99950000       0.12920000      -0.28930000
H       -0.00320000      -2.10900000       0.38510000
H       -1.04950000      -1.24100000       1.60200000
H       -1.01920000      -0.72670000      -1.46880000
H       -2.17910000       2.50960000      -0.46710000
H       -3.96890000      -1.32350000       0.26130000
