16
Properties=species:S:1:pos:R:3 gdb_60742=T pbc="F F F"
C       -0.46600000       1.51640000       0.26550000
N       -0.02750000       0.12950000       0.10110000
C        0.00990000      -0.68310000       1.24090000
O       -0.29870000      -0.29860000       2.34200000
C        0.36720000      -0.42360000      -1.12530000
O        0.76460000      -1.56210000      -1.22740000
C        0.29610000       0.48600000      -2.33000000
C        1.39600000       0.39600000      -3.31470000
O        0.13520000      -0.19510000      -3.56870000
H        0.29430000       2.21610000      -0.09010000
H       -1.40730000       1.70300000      -0.25890000
H       -0.62080000       1.66840000       1.33340000
H        0.34980000      -1.69830000       1.00420000
H       -0.25860000       1.41570000      -2.25150000
H        1.64180000       1.27420000      -3.90970000
H        2.20300000      -0.30580000      -3.11670000
