21
Properties=species:S:1:pos:R:3 gdb_60150=T pbc="F F F"
C        0.06760000       1.58100000       0.23970000
C        0.10090000       0.06420000       0.00140000
C        1.01210000      -0.62520000       1.02660000
C       -1.30070000      -0.57580000       0.02460000
C       -2.22030000      -0.19250000      -1.11900000
C       -3.66190000      -0.73720000      -1.09490000
C       -4.05070000       0.73750000      -1.00100000
O       -5.04220000       1.38920000      -0.93800000
O       -2.75390000       1.18320000      -1.01690000
H        1.08020000       1.99590000       0.20300000
H       -0.54410000       2.10150000      -0.49970000
H       -0.34820000       1.80830000       1.22860000
H        0.52570000      -0.11520000      -0.99750000
H        0.62440000      -0.49530000       2.04410000
H        1.09450000      -1.70060000       0.83590000
H        2.02100000      -0.20130000       1.00180000
H       -1.19190000      -1.66850000      -0.01720000
H       -1.80290000      -0.34910000       0.97510000
H       -1.72020000      -0.29840000      -2.08680000
H       -4.01410000      -1.24110000      -1.99620000
H       -3.93170000      -1.32560000      -0.21540000
