17
Properties=species:S:1:pos:R:3 gdb_32829=T pbc="F F F"
O       -0.20970000       0.40830000      -1.29720000
C       -0.00760000       0.16890000       0.10980000
C       -1.14540000      -0.62320000       0.75110000
C       -1.29520000      -2.03720000       0.27110000
C       -1.13990000      -2.56930000      -0.99080000
O       -0.79680000      -2.07900000      -2.19430000
N       -1.42540000      -3.90690000      -0.87930000
C       -1.74090000      -4.14260000       0.43540000
N       -1.67110000      -3.04740000       1.14480000
H       -1.00010000       0.95190000      -1.39170000
H        0.93390000      -0.38350000       0.17200000
H        0.12600000       1.13070000       0.62130000
H       -0.97450000      -0.65940000       1.83290000
H       -2.07850000      -0.04960000       0.62000000
H       -0.53810000      -1.14230000      -2.05930000
H       -1.37730000      -4.56860000      -1.63580000
H       -2.00450000      -5.12490000       0.79630000
