14
Properties=species:S:1:pos:R:3 gdb_12179=T pbc="F F F"
O        0.63250000       1.30130000       0.22310000
C        0.13580000       0.02000000       0.06940000
C       -1.44260000      -0.28660000       0.03760000
C       -1.18280000      -1.32850000      -1.08900000
C        0.14110000      -0.61040000      -1.32700000
O        0.77950000      -0.31810000      -2.29910000
C       -1.97720000      -0.80860000       1.34050000
O       -1.86810000      -1.95840000       1.68990000
H        0.76440000       1.67180000      -0.65920000
H        0.58550000      -0.64580000       0.81630000
H       -1.97930000       0.60140000      -0.30280000
H       -1.05900000      -2.32340000      -0.64950000
H       -1.87480000      -1.37320000      -1.93020000
H       -2.45000000      -0.05100000       2.00170000
