20
Properties=species:S:1:pos:R:3 gdb_107763=T pbc="F F F"
C       -0.04620000       1.34710000       0.05180000
O        0.04470000      -0.05960000      -0.04570000
C        0.68640000      -0.55110000      -1.18270000
C        2.17960000      -0.19780000      -1.43910000
C        2.32370000      -1.03750000      -2.69820000
C        1.41880000      -2.21560000      -2.56100000
C        0.71810000      -2.09300000      -1.21860000
N        1.02080000      -1.06790000      -3.42410000
C        0.09930000      -0.26430000      -2.59000000
H        0.94280000       1.82430000       0.09560000
H       -0.60930000       1.78640000      -0.78330000
H       -0.57790000       1.56260000       0.98140000
H        2.35020000       0.86830000      -1.61690000
H        2.83090000      -0.53110000      -0.62540000
H        3.22000000      -1.03740000      -3.30700000
H        1.59010000      -3.16410000      -3.05530000
H        1.29660000      -2.51480000      -0.39140000
H       -0.28750000      -2.52320000      -1.20400000
H       -0.92920000      -0.62030000      -2.70180000
H        0.14910000       0.78650000      -2.88940000
