20
Properties=species:S:1:pos:R:3 gdb_111222=T pbc="F F F"
O       -0.00800000       1.49180000       0.77270000
C        0.15210000       0.18350000       0.24790000
C       -1.21380000      -0.45760000       0.06610000
C       -1.51050000      -1.97870000       0.03230000
C       -1.20150000      -1.94860000       1.54670000
N       -2.03900000      -0.66650000       1.36670000
C       -2.94140000      -1.58630000       0.49400000
C       -4.01260000      -0.89580000      -0.33270000
O       -4.91950000      -0.23180000       0.53220000
H       -0.59880000       1.41040000       1.53140000
H        0.62830000       0.29580000      -0.73280000
H        0.83430000      -0.41370000       0.86760000
H       -1.75910000       0.15650000      -0.65160000
H       -1.21290000      -2.72130000      -0.71550000
H       -1.69050000      -2.69310000       2.17970000
H       -0.17910000      -1.77510000       1.87820000
H       -3.43790000      -2.32840000       1.12830000
H       -3.60630000      -0.20960000      -1.08750000
H       -4.59040000      -1.65600000      -0.87080000
H       -4.38210000       0.27300000       1.15480000
