16
Properties=species:S:1:pos:R:3 gdb_127886=T pbc="F F F"
C       -0.04180000       1.42730000       0.14300000
N       -0.03090000      -0.02190000       0.16370000
C       -1.07330000      -0.68520000      -0.11720000
N       -2.31510000      -0.05250000      -0.49850000
N       -3.39210000      -0.65690000      -0.33410000
N       -3.32800000      -1.94310000       0.18500000
C       -2.16400000      -2.67560000       0.03900000
C       -2.28800000      -4.16920000       0.06940000
N       -1.03840000      -2.08570000      -0.13190000
H        0.79350000       1.76870000      -0.47920000
H       -0.96950000       1.88070000      -0.21990000
H        0.15970000       1.79400000       1.15710000
H       -4.22850000      -2.39780000       0.15430000
H       -2.92740000      -4.52710000      -0.74520000
H       -1.29500000      -4.60580000      -0.03160000
H       -2.73320000      -4.50150000       1.01370000
