19
Properties=species:S:1:pos:R:3 gdb_44952=T pbc="F F F"
O       -0.00820000       0.00220000       0.00900000
C       -0.03690000       1.20320000      -0.00160000
C       -1.28780000       2.09440000      -0.06580000
C       -0.73110000       3.52910000       0.06400000
C        0.63980000       3.40660000      -0.64690000
C        1.19080000       2.15460000       0.03930000
O        1.54490000       2.45310000       1.39050000
C        0.44390000       2.85170000       2.20550000
C       -0.45480000       3.90320000       1.53470000
H       -1.77070000       1.94000000      -1.03820000
H       -2.01160000       1.80480000       0.70210000
H       -1.38570000       4.27130000      -0.39850000
H        0.51830000       3.23940000      -1.72370000
H        1.28760000       4.27390000      -0.49760000
H        2.07210000       1.70170000      -0.41600000
H       -0.15370000       1.96840000       2.48090000
H        0.88460000       3.24040000       3.12730000
H        0.03310000       4.88400000       1.56540000
H       -1.38840000       3.98560000       2.10360000
