18
Properties=species:S:1:pos:R:3 gdb_52119=T pbc="F F F"
O       -0.05310000       0.51600000      -0.84050000
C        0.09700000       1.29650000       0.07570000
N        1.27930000       1.56860000       0.69020000
C        2.54210000       0.97060000       0.28180000
C        3.52830000       2.01150000      -0.14510000
C        3.57780000       2.84530000      -1.43820000
C        5.13340000       2.94980000      -1.25150000
C        4.98710000       2.12460000       0.03390000
O        4.08810000       2.83960000       0.89340000
H       -0.73640000       1.87660000       0.51850000
H        1.29950000       2.26080000       1.42270000
H        2.96950000       0.38680000       1.10570000
H        2.30780000       0.29130000      -0.54130000
H        3.29790000       2.27650000      -2.32770000
H        3.01180000       3.77850000      -1.40780000
H        5.68520000       2.42900000      -2.03730000
H        5.55020000       3.94940000      -1.11110000
H        5.69870000       1.46020000       0.51200000
