21
Properties=species:S:1:pos:R:3 gdb_96033=T pbc="F F F"
O       -0.12240000       1.48740000       0.55430000
C       -0.01080000       0.14300000       0.08820000
C        0.73640000      -0.75530000       1.09120000
C       -0.33590000      -1.23220000       2.11510000
C       -1.69470000      -0.73410000       1.56290000
C       -1.42910000      -0.44750000       0.07300000
C       -2.47200000       0.44470000      -0.62310000
C       -3.79760000      -0.16140000      -0.67270000
C       -4.88130000      -0.68110000      -0.70960000
H        0.76590000       1.83840000       0.66690000
H        0.45390000       0.12770000      -0.90900000
H        1.17620000      -1.60730000       0.56170000
H        1.56550000      -0.21480000       1.56000000
H       -0.32140000      -2.32290000       2.19850000
H       -0.14550000      -0.84050000       3.11740000
H       -2.50580000      -1.45020000       1.71060000
H       -1.98500000       0.19840000       2.05690000
H       -1.37410000      -1.40160000      -0.46730000
H       -2.51770000       1.40770000      -0.10340000
H       -2.13820000       0.66650000      -1.64540000
H       -5.84410000      -1.12670000      -0.74480000
