17
Properties=species:S:1:pos:R:3 gdb_89701=T pbc="F F F"
O        0.03870000       1.36820000      -0.02410000
C        0.01040000      -0.03540000      -0.02480000
C        0.53950000      -0.68580000       1.30260000
C       -0.78810000      -1.33100000       1.75860000
C       -1.26220000      -2.06100000       0.46600000
C       -1.42930000      -0.59130000       0.02180000
N       -1.75980000      -0.19880000       1.45140000
C       -0.84860000      -1.95000000       3.06490000
N       -0.90520000      -2.46080000       4.10030000
H       -0.55140000       1.63770000       0.69400000
H        0.56330000      -0.36370000      -0.90750000
H        1.32490000      -1.42910000       1.15330000
H        0.89090000       0.07730000       1.99800000
H       -0.55000000      -2.70890000      -0.05350000
H       -2.21790000      -2.57040000       0.60600000
H       -2.11390000      -0.27160000      -0.76170000
H       -2.70120000      -0.52960000       1.66620000
