18
Properties=species:S:1:pos:R:3 gdb_88348=T pbc="F F F"
C        0.24230000       1.53650000      -0.40100000
C        0.06830000       0.06580000      -0.08910000
C        1.25000000      -0.87440000      -0.04950000
C        0.49470000      -0.56180000       1.21760000
C        1.15420000       0.26110000       2.32880000
C        0.16520000       0.93320000       3.17670000
C       -0.66480000       1.48060000       3.84880000
C        2.04200000      -0.59550000       3.13780000
N        2.74270000      -1.27780000       3.75200000
H        1.21060000       1.92080000      -0.06600000
H        0.19090000       1.70420000      -1.48180000
H       -0.53940000       2.14110000       0.07070000
H       -0.84860000      -0.35570000      -0.49280000
H        1.16090000      -1.86940000      -0.47000000
H        2.23660000      -0.43450000      -0.16360000
H       -0.14980000      -1.34110000       1.61060000
H        1.79570000       1.02480000       1.87110000
H       -1.39240000       1.96570000       4.45190000
