23
Properties=species:S:1:pos:R:3 gdb_123073=T pbc="F F F"
C        0.02330000       1.51970000       0.01000000
C        0.02450000       0.06330000       0.00230000
C        0.03660000      -1.14090000      -0.00430000
C        0.01750000      -2.59990000      -0.01190000
C       -1.40620000      -3.19200000      -0.00150000
C       -1.40810000      -4.72350000      -0.00980000
C       -2.81800000      -5.32070000       0.00040000
C       -2.82090000      -6.84350000      -0.00790000
O       -4.17230000      -7.28000000       0.00270000
H        1.04370000       1.91920000       0.00240000
H       -0.49510000       1.92410000      -0.86660000
H       -0.47830000       1.91480000       0.90060000
H        0.55610000      -2.97050000      -0.89510000
H        0.57280000      -2.97990000       0.85670000
H       -1.93890000      -2.82280000       0.88290000
H       -1.95560000      -2.81320000      -0.87150000
H       -0.86340000      -5.08200000      -0.89480000
H       -0.84660000      -5.09150000       0.86050000
H       -3.36700000      -4.97820000       0.88620000
H       -3.38390000      -4.96870000      -0.87090000
H       -2.29050000      -7.21170000      -0.90180000
H       -2.27350000      -7.22140000       0.87170000
H       -4.17780000      -8.24140000      -0.00240000
