18
Properties=species:S:1:pos:R:3 gdb_72596=T pbc="F F F"
C       -0.12390000       1.58070000      -0.09760000
C       -0.01310000       0.08190000       0.03120000
C        0.92390000      -0.72160000      -0.90040000
O        1.47460000      -1.46520000       0.20740000
C        0.69320000      -0.72200000       1.18010000
C        1.48260000      -0.21290000       2.34770000
C       -0.68000000      -1.42990000       1.37360000
O       -1.11220000      -2.32730000       2.04260000
N       -1.24270000      -0.63880000       0.38420000
H        0.86680000       2.04070000      -0.16170000
H       -0.67620000       1.85670000      -1.00380000
H       -0.65290000       2.00590000       0.76000000
H        0.43470000      -1.36340000      -1.64180000
H        1.69810000      -0.11820000      -1.39030000
H        2.34750000       0.36810000       2.01460000
H        0.85910000       0.41000000       2.99640000
H        1.84310000      -1.06040000       2.93950000
H       -2.06300000      -0.82260000      -0.17920000
