22
Properties=species:S:1:pos:R:3 gdb_65092=T pbc="F F F"
C       -0.01890000       1.51280000       0.16190000
C        0.02310000       0.00700000      -0.01820000
C        1.16590000      -0.56750000      -0.82550000
C        1.13640000      -0.75740000       0.67060000
C       -1.31340000      -0.65840000      -0.09930000
C       -1.59170000      -2.14460000      -0.41440000
C       -2.91840000      -1.71800000      -1.12690000
C       -2.60870000      -0.26110000      -0.76840000
N       -2.42700000      -0.10570000       0.67220000
H        0.99420000       1.91980000       0.23690000
H       -0.51100000       1.99770000      -0.68910000
H       -0.57400000       1.78260000       1.06340000
H        0.98860000      -1.43340000      -1.45330000
H        1.88170000       0.13470000      -1.23980000
H        1.83650000      -0.19550000       1.27960000
H        0.91840000      -1.75070000       1.04870000
H       -0.88320000      -2.59780000      -1.11080000
H       -1.68120000      -2.79630000       0.46170000
H       -2.89090000      -1.91790000      -2.20080000
H       -3.85520000      -2.11630000      -0.72170000
H       -2.86960000       0.61960000      -1.34500000
H       -2.93040000      -0.80890000       1.21160000
