16
Properties=species:S:1:pos:R:3 gdb_36463=T pbc="F F F"
C       -0.19230000      -1.24640000      -0.17770000
C       -0.13350000      -0.04960000      -0.07510000
C       -0.05040000       1.38830000       0.06170000
C        0.03970000       1.98120000       1.49660000
O        1.28050000       2.64650000       1.19240000
C        1.33660000       2.08680000      -0.12820000
C        2.54600000       1.16910000      -0.32880000
C        3.80320000       1.91200000      -0.30800000
N        4.79420000       2.50570000      -0.30360000
H       -0.25400000      -2.30280000      -0.27110000
H       -0.82510000       1.87020000      -0.53980000
H       -0.75320000       2.68810000       1.76180000
H        0.15130000       1.23730000       2.29240000
H        1.33620000       2.87190000      -0.89300000
H        2.56210000       0.40150000       0.45090000
H        2.45160000       0.65070000      -1.29000000
