19
Properties=species:S:1:pos:R:3 gdb_79411=T pbc="F F F"
C       -0.22590000       1.62990000       0.17080000
C       -0.00140000       0.13150000      -0.01050000
C        0.48130000      -0.61450000      -1.31850000
C        1.60150000      -0.41020000      -2.40110000
C        2.44340000       0.31660000      -1.34010000
C        1.81600000      -0.93700000      -0.61230000
C        2.24880000      -1.76550000      -1.86840000
C        1.19900000      -0.58010000       0.75430000
O        1.43740000      -0.76150000       1.90750000
H        0.64220000       2.23790000      -0.09020000
H       -1.06670000       1.96600000      -0.44430000
H       -0.47080000       1.83880000       1.21750000
H       -0.91960000      -0.37430000       0.31320000
H       -0.16240000      -1.47590000      -1.51680000
H        1.48490000      -0.14080000      -3.45450000
H        3.53010000       0.28010000      -1.44890000
H        2.11620000       1.30720000      -1.03400000
H        1.68450000      -2.68350000      -2.04680000
H        3.31640000      -1.89740000      -2.06300000
