16
Properties=species:S:1:pos:R:3 gdb_54469=T pbc="F F F"
N        0.07760000       1.24990000      -0.23190000
C        0.00890000      -0.06080000       0.15570000
O        0.97440000      -0.67780000       0.57670000
C       -1.31150000      -0.71170000      -0.00890000
N       -1.63970000      -1.87940000       0.84640000
C       -1.52060000      -2.07630000      -0.59220000
C       -2.81440000      -1.56710000      -1.30330000
N       -3.75100000      -1.04510000      -0.27820000
C       -2.61100000      -0.21810000      -0.73290000
H        0.92980000       1.73980000      -0.00810000
H       -0.76010000       1.79970000      -0.32260000
H       -0.73700000      -2.14900000       1.24650000
H       -0.76890000      -2.71830000      -1.03230000
H       -3.14670000      -1.86370000      -2.28890000
H       -4.57010000      -0.70960000      -0.78700000
H       -2.75160000       0.75230000      -1.19220000
