21
Properties=species:S:1:pos:R:3 gdb_107009=T pbc="F F F"
C       -0.35230000       1.60010000       0.35080000
C       -0.16990000       0.09900000       0.17070000
C        0.27400000      -0.39320000      -1.21480000
O        1.59510000       0.12590000      -1.45460000
C        1.46120000      -1.06260000      -0.66270000
C        2.21730000      -2.27240000      -1.11050000
O        1.63420000      -3.40500000      -0.48010000
C        1.11350000      -0.62310000       0.77130000
C        2.15650000       0.19050000       1.52430000
H        0.50020000       2.15040000      -0.05560000
H       -1.25380000       1.94490000      -0.16790000
H       -0.45880000       1.86470000       1.40800000
H       -1.06970000      -0.43600000       0.49110000
H       -0.32380000      -0.62640000      -2.08950000
H        2.16580000      -2.33300000      -2.20800000
H        3.27890000      -2.16520000      -0.83450000
H        2.20120000      -4.16350000      -0.64580000
H        0.80220000      -1.49190000       1.35730000
H        2.54350000       1.00190000       0.90270000
H        1.73690000       0.62820000       2.43610000
H        3.00130000      -0.44030000       1.82320000
