21
Properties=species:S:1:pos:R:3 gdb_35124=T pbc="F F F"
C       -0.95880000      -0.65210000      -0.95530000
C       -0.42410000       0.26740000      -0.39290000
C        0.23640000       1.35310000       0.30030000
C        0.26120000       1.34170000       1.86450000
C        1.74630000       1.81320000       1.82350000
C        1.80010000       1.38860000       0.32480000
C        1.94050000       3.29040000       2.06250000
C        2.24230000       3.80430000       3.44780000
C        3.30970000       3.83690000       2.37980000
H       -1.43460000      -1.45860000      -1.45540000
H       -0.15430000       2.31010000      -0.06100000
H       -0.45550000       1.99240000       2.37090000
H        0.15660000       0.32630000       2.25270000
H        2.42020000       1.25410000       2.48010000
H        2.21900000       0.38910000       0.18920000
H        2.28590000       2.07590000      -0.37190000
H        1.30920000       3.93270000       1.45120000
H        1.79870000       4.74260000       3.76220000
H        2.34720000       3.07550000       4.24510000
H        4.12890000       3.12970000       2.46240000
H        3.59490000       4.79730000       1.96490000
