21
Properties=species:S:1:pos:R:3 gdb_58989=T pbc="F F F"
C       -0.00100000       1.53220000       0.03310000
C       -0.06070000      -0.00130000       0.06840000
O        0.53910000      -0.56580000      -1.09870000
C        0.67360000      -0.56950000       1.25090000
C        0.11980000      -1.08180000       2.35230000
C        1.14320000      -1.62650000       3.31860000
O        1.08170000      -3.05290000       3.40090000
C        2.48200000      -1.07800000       2.75380000
C        2.18760000      -0.62850000       1.30200000
H        1.03420000       1.88010000      -0.02600000
H       -0.54100000       1.91450000      -0.84160000
H       -0.46530000       1.95960000       0.92670000
H       -1.11740000      -0.30530000       0.13540000
H        0.15230000      -0.13300000      -1.86650000
H       -0.94600000      -1.19000000       2.52540000
H        0.97900000      -1.29870000       4.35030000
H        1.04460000      -3.38690000       2.49740000
H        2.80420000      -0.21880000       3.35010000
H        3.26440000      -1.83710000       2.82770000
H        2.56030000      -1.32800000       0.54500000
H        2.65090000       0.33620000       1.06760000
