14
Properties=species:S:1:pos:R:3 gdb_10788=T pbc="F F F"
N       -0.04980000       1.04300000      -0.83440000
C        0.01840000       0.07160000      -0.02950000
C       -1.23870000      -0.57950000       0.50570000
N       -1.04200000      -2.00840000       0.68940000
C        0.08750000      -2.50460000       1.26240000
O        0.23700000      -3.65400000       1.62130000
C        1.17830000      -1.44850000       1.42820000
O        1.19720000      -0.45010000       0.40070000
H        0.88670000       1.38240000      -1.06310000
H       -1.52530000      -0.08430000       1.44680000
H       -2.03750000      -0.40000000      -0.21280000
H       -1.82860000      -2.63660000       0.61720000
H        1.06800000      -0.97150000       2.41250000
H        2.14680000      -1.94610000       1.39590000
