20
Properties=species:S:1:pos:R:3 gdb_83706=T pbc="F F F"
C       -0.26400000       1.57500000       0.05890000
C        0.02940000       0.07830000      -0.01510000
C        0.83680000      -0.43250000      -1.20970000
C        2.19800000       0.25420000      -1.55460000
C        2.92180000      -1.10200000      -1.31250000
C        1.63430000      -1.64520000      -0.65870000
O        1.64080000      -1.47900000       0.76850000
C        0.83060000      -0.45030000       1.16600000
N        0.75280000      -0.02210000       2.35130000
H        0.65270000       2.16670000      -0.01800000
H       -0.93710000       1.88050000      -0.74790000
H       -0.72990000       1.81230000       1.01780000
H       -0.92730000      -0.46370000       0.00060000
H        0.22780000      -0.64220000      -2.08990000
H        2.28110000       0.67860000      -2.55650000
H        2.48250000       1.02400000      -0.83330000
H        3.15300000      -1.62820000      -2.24250000
H        3.80820000      -1.09890000      -0.67510000
H        1.32350000      -2.66860000      -0.88260000
H        1.37740000      -0.54640000       2.96620000
