18
Properties=species:S:1:pos:R:3 gdb_72377=T pbc="F F F"
C       -0.24220000       1.47760000       0.03660000
C        0.02620000      -0.01690000      -0.04580000
O       -1.27490000      -0.70460000      -0.01970000
C       -1.17160000      -1.62670000       0.95930000
N       -0.12010000      -1.70630000       1.66500000
C        0.79090000      -0.66600000       1.15830000
C        2.10080000      -1.25420000       0.57640000
C        1.92350000      -1.11450000      -0.91430000
C        0.81670000      -0.45580000      -1.25140000
H        0.70320000       2.02840000       0.05190000
H       -0.82290000       1.81820000      -0.82600000
H       -0.80210000       1.71870000       0.94510000
H       -2.04710000      -2.25720000       1.07570000
H        0.99770000       0.04580000       1.96390000
H        2.98540000      -0.70630000       0.92570000
H        2.23060000      -2.29490000       0.89070000
H        2.64730000      -1.50770000      -1.62040000
H        0.48760000      -0.23410000      -2.26030000
