16
Properties=species:S:1:pos:R:3 gdb_132606=T pbc="F F F"
N       -0.02490000       1.41800000       0.15310000
C       -0.00400000       0.01930000       0.06410000
C       -1.19920000      -0.70850000       0.01900000
C       -1.16230000      -2.10070000      -0.00610000
C        0.05040000      -2.75730000       0.01570000
F        0.10140000      -4.10830000      -0.02490000
C        1.26480000      -2.06370000       0.06330000
N        2.46120000      -2.77360000       0.14050000
C        1.21560000      -0.66810000       0.08300000
H        0.80460000       1.86920000      -0.20590000
H       -0.85630000       1.84120000      -0.23410000
H       -2.15160000      -0.18970000       0.00700000
H       -2.07420000      -2.68550000      -0.04930000
H        2.38720000      -3.72640000      -0.18500000
H        3.26230000      -2.29850000      -0.24820000
H        2.14660000      -0.10940000       0.12860000
