18
Properties=species:S:1:pos:R:3 gdb_70528=T pbc="F F F"
O        0.16900000       1.32830000      -0.25210000
C        0.07910000      -0.06000000      -0.09440000
C       -0.50750000      -0.80650000      -1.25330000
C       -1.28540000      -0.68560000       0.04680000
C       -1.44690000      -1.86620000       0.99080000
N       -1.11510000      -1.59060000       2.39060000
C       -0.09940000      -0.95360000       2.78120000
O        0.96410000      -0.38490000       2.14040000
C        1.17040000      -0.67060000       0.74150000
H        0.09080000       1.72310000       0.62450000
H       -0.83600000      -0.20090000      -2.08970000
H       -0.09050000      -1.77140000      -1.52300000
H       -2.10820000       0.02270000       0.03410000
H       -2.48970000      -2.20010000       0.97300000
H       -0.86240000      -2.72590000       0.63890000
H        0.02890000      -0.76970000       3.84870000
H        1.24380000      -1.75240000       0.59770000
H        2.13710000      -0.22100000       0.50260000
