20
Properties=species:S:1:pos:R:3 gdb_68068=T pbc="F F F"
C       -0.15700000       1.53140000       0.00030000
C        0.05580000       0.04060000       0.01540000
C        1.11190000      -0.65620000      -0.88200000
C        1.08790000      -1.80000000       0.18270000
C        2.30170000      -2.67300000       0.40200000
C        0.70630000      -0.69280000       1.21750000
N       -0.11320000      -2.62040000      -0.06360000
C       -1.16140000      -1.93420000      -0.25410000
O       -1.23300000      -0.58270000      -0.24440000
H        0.78780000       2.04760000       0.19160000
H       -0.54220000       1.85650000      -0.97130000
H       -0.87810000       1.82620000       0.76900000
H        0.82890000      -0.90810000      -1.90650000
H        2.05520000      -0.10470000      -0.86960000
H        3.19430000      -2.06610000       0.58500000
H        2.14650000      -3.33470000       1.26020000
H        2.48150000      -3.30440000      -0.47410000
H        1.58290000      -0.14730000       1.57580000
H        0.06390000      -0.97710000       2.05400000
H       -2.13070000      -2.38620000      -0.44920000
