17
Properties=species:S:1:pos:R:3 gdb_64599=T pbc="F F F"
O        0.01840000       1.49620000      -0.01560000
C       -0.00040000       0.09190000       0.02800000
C        0.77740000      -0.45530000      -1.16380000
O        1.32700000       0.26720000      -1.95920000
C        0.61700000      -0.46410000       1.31470000
C       -0.19560000      -1.31610000       1.94000000
C       -1.51160000      -1.43880000       1.24370000
C       -2.30870000      -0.14980000       1.19330000
C       -1.41270000      -0.52250000       0.04210000
H        0.52670000       1.72720000      -0.80980000
H        0.81180000      -1.55960000      -1.24810000
H        1.58790000      -0.12320000       1.65320000
H        0.02270000      -1.81720000       2.87660000
H       -2.02960000      -2.38980000       1.20490000
H       -3.37590000      -0.22710000       1.01430000
H       -2.00720000       0.66430000       1.84220000
H       -1.87460000      -0.77990000      -0.90380000
