21
Properties=species:S:1:pos:R:3 gdb_94649=T pbc="F F F"
C       -0.06170000       1.57570000      -0.04210000
C        0.03420000       0.05300000      -0.10100000
C        1.32890000      -0.47810000      -0.79030000
C        1.96650000      -0.69230000       0.61160000
C        0.53460000      -0.61300000       1.20790000
O        0.31890000       0.13910000       2.37700000
C        0.81890000      -0.46180000       3.54350000
C        0.46260000       0.42470000       4.72420000
O        0.79060000       0.19160000       5.85680000
H        0.86770000       2.02770000       0.31820000
H       -0.26740000       1.97870000      -1.03920000
H       -0.86320000       1.89480000       0.62980000
H       -0.90400000      -0.35790000      -0.48510000
H        1.16600000      -1.41990000      -1.32020000
H        1.83860000       0.21490000      -1.46360000
H        2.54300000      -1.60480000       0.77870000
H        2.56510000       0.16820000       0.92360000
H        0.10730000      -1.62070000       1.33080000
H        0.38300000      -1.46220000       3.71090000
H        1.91300000      -0.59020000       3.51480000
H       -0.13890000       1.31730000       4.44320000
