19
Properties=species:S:1:pos:R:3 gdb_117402=T pbc="F F F"
C        0.89310000       0.84090000       0.16490000
N       -0.33650000       0.32060000      -0.43120000
C       -0.11380000      -0.59740000      -1.52330000
C        0.42060000      -1.96660000      -1.11450000
O        0.47180000      -2.38810000       0.00930000
O        0.80460000      -2.67190000      -2.22420000
C        1.26180000      -3.95910000      -2.05200000
N        1.61510000      -4.60560000      -3.06530000
C        2.09170000      -5.95900000      -2.85480000
H        1.57900000       0.06630000       0.54120000
H        1.42820000       1.44130000      -0.57950000
H        0.63410000       1.50120000       0.99710000
H       -0.88200000      -0.14790000       0.28490000
H       -1.05130000      -0.77870000      -2.06690000
H        0.57460000      -0.15940000      -2.25420000
H        1.26680000      -4.28790000      -1.01060000
H        1.46960000      -6.65260000      -3.43060000
H        3.11110000      -6.04580000      -3.24570000
H        2.09080000      -6.27750000      -1.80110000
