20
Properties=species:S:1:pos:R:3 gdb_101399=T pbc="F F F"
C        0.11800000       1.35120000      -0.36320000
C        0.01150000      -0.10960000       0.09190000
C        0.67400000      -0.32880000       1.46770000
O        0.19900000       0.52990000       2.47160000
N       -1.37740000      -0.56420000       0.09970000
C       -2.26670000      -0.90510000      -1.02090000
C       -3.38840000      -1.14120000       0.02700000
C       -2.33190000      -0.72950000       1.06640000
O       -2.31520000      -0.59240000       2.27240000
H        1.16810000       1.62610000      -0.50330000
H       -0.40290000       1.51470000      -1.31130000
H       -0.30800000       2.00690000       0.39920000
H        0.54040000      -0.75400000      -0.62530000
H        0.56960000      -1.38900000       1.74600000
H        1.74440000      -0.12460000       1.34840000
H       -0.70430000       0.23060000       2.68300000
H       -2.44640000      -0.07790000      -1.71510000
H       -1.94440000      -1.78860000      -1.58170000
H       -4.24360000      -0.46620000      -0.03350000
H       -3.73810000      -2.17020000       0.12350000
