17
Properties=species:S:1:pos:R:3 gdb_132536=T pbc="F F F"
C       -0.03810000       1.52540000      -0.00870000
C       -0.02070000       0.01860000      -0.00220000
C       -0.05340000      -0.71660000      -1.18170000
N       -0.03990000      -2.05650000      -1.22860000
C        0.00730000      -2.68900000      -0.08610000
F        0.02040000      -4.02450000      -0.14660000
C        0.04500000      -2.10100000       1.18480000
C        0.09820000      -2.94460000       2.42840000
C        0.02940000      -0.71310000       1.19200000
H        0.85550000       1.93920000       0.47170000
H       -0.07770000       1.91420000      -1.02970000
H       -0.90600000       1.91900000       0.53220000
H       -0.09280000      -0.20900000      -2.14270000
H        0.98660000      -3.58480000       2.43540000
H        0.11890000      -2.31900000       3.32400000
H       -0.76900000      -3.61010000       2.49330000
H        0.05660000      -0.18920000       2.14430000
