20
Properties=species:S:1:pos:R:3 gdb_39379=T pbc="F F F"
C       -0.03310000       1.56610000       0.23990000
C        1.29710000       0.87240000       0.09690000
C        2.18830000       0.65890000       1.29860000
C        3.08080000      -0.58910000       1.19790000
N        2.57650000      -1.93070000       1.05670000
C        1.48040000      -2.52280000       0.91360000
O        0.15440000      -2.19970000       0.85690000
C       -0.36940000      -0.88590000       1.05400000
C        0.01880000       0.08070000      -0.03050000
H       -0.32570000       1.89250000       1.23380000
H       -0.37580000       2.21690000      -0.55660000
H        1.83460000       1.04940000      -0.83150000
H        2.86090000       1.51980000       1.41060000
H        1.59630000       0.62790000       2.21960000
H        3.76440000      -0.44380000       0.34800000
H        3.73630000      -0.60350000       2.07920000
H        1.50640000      -3.60930000       0.79360000
H       -1.45300000      -1.03780000       1.06180000
H       -0.08420000      -0.51460000       2.04430000
H       -0.26540000      -0.24530000      -1.02690000
