16
Properties=species:S:1:pos:R:3 gdb_44116=T pbc="F F F"
N       -0.00660000       0.91070000       0.75620000
C       -0.02800000      -0.15200000       0.08260000
C       -1.27200000      -0.94470000      -0.29400000
C       -0.73740000      -2.14760000      -1.04520000
C        0.74400000      -1.95100000      -1.10410000
O        1.09390000      -0.77050000      -0.42970000
C        0.18980000      -3.10000000      -0.27330000
C        0.24610000      -3.09510000       1.15620000
C        0.27820000      -3.08520000       2.35840000
H        0.95100000       1.24210000       0.88060000
H       -1.83180000      -1.19990000       0.60910000
H       -1.92110000      -0.33490000      -0.92840000
H       -1.29650000      -2.55480000      -1.87790000
H        1.37060000      -2.14610000      -1.96530000
H        0.30740000      -4.07500000      -0.73910000
H        0.31940000      -3.07370000       3.41940000
