22
Properties=species:S:1:pos:R:3 gdb_115725=T pbc="F F F"
C        0.18050000       1.58070000       0.15020000
C       -0.21450000       0.13120000      -0.15210000
C        0.63590000      -0.48550000      -1.25900000
C        2.10200000      -0.83500000      -0.92100000
O        1.88160000      -2.24120000      -1.17800000
C        0.50220000      -2.01080000      -1.55180000
C       -0.45280000      -2.84300000      -0.72880000
C       -0.10220000      -4.24260000      -0.39230000
N       -0.11520000      -3.20090000       0.65540000
H        1.22330000       1.65130000       0.47980000
H        0.07100000       2.21550000      -0.73620000
H       -0.44430000       2.00300000       0.94270000
H       -0.13780000      -0.47550000       0.75710000
H       -1.27000000       0.09660000      -0.45020000
H        0.54680000       0.11750000      -2.16760000
H        2.86430000      -0.41950000      -1.59010000
H        2.40550000      -0.65520000       0.11860000
H        0.34520000      -2.23140000      -2.61740000
H       -1.50150000      -2.59390000      -0.88330000
H       -0.88170000      -4.99420000      -0.30770000
H        0.86420000      -4.60980000      -0.72570000
H        0.85400000      -2.92570000       0.81080000
