16
Properties=species:S:1:pos:R:3 gdb_131776=T pbc="F F F"
O        0.03540000       1.45430000       0.11730000
C        0.01900000       0.08330000      -0.22290000
C       -1.37780000      -0.51940000      -0.08150000
C       -1.45970000      -2.09840000      -0.13920000
N       -1.92270000      -2.00740000       1.26360000
N       -2.35920000      -2.61820000       2.37520000
N       -2.61210000      -1.63140000       3.20550000
C       -2.35210000      -0.41330000       2.62960000
C       -1.89850000      -0.66990000       1.35380000
H       -0.11330000       1.52400000       1.06650000
H        0.34210000       0.02310000      -1.26770000
H        0.73370000      -0.49700000       0.38110000
H       -2.07480000      -0.01810000      -0.75690000
H       -2.20780000      -2.51320000      -0.81650000
H       -0.50770000      -2.62200000      -0.25110000
H       -2.51830000       0.50300000       3.17020000
