21
Properties=species:S:1:pos:R:3 gdb_112928=T pbc="F F F"
C        0.00410000       1.36490000      -0.06960000
O       -0.07780000      -0.03360000       0.06630000
C        0.66300000      -0.56450000       1.16240000
C        0.02900000      -1.90770000       1.52560000
C        0.92230000      -2.69460000       2.47830000
O        0.21430000      -3.86820000       2.85390000
C        2.26440000      -3.01570000       1.80670000
C        2.83660000      -1.81320000       1.10160000
C        2.12760000      -0.72070000       0.82150000
H        1.02330000       1.71450000      -0.29370000
H       -0.64530000       1.64600000      -0.90260000
H       -0.34140000       1.88260000       0.83970000
H        0.56420000       0.13000000       2.01650000
H       -0.95560000      -1.75380000       1.97520000
H       -0.11530000      -2.48320000       0.60430000
H        1.12010000      -2.07210000       3.36820000
H        0.77400000      -4.37470000       3.45150000
H        2.98130000      -3.39530000       2.54830000
H        2.10590000      -3.83550000       1.09120000
H        3.88480000      -1.86290000       0.81560000
H        2.60060000       0.11640000       0.31470000
