25
Properties=species:S:1:pos:R:3 gdb_94541=T pbc="F F F"
C        0.78650000       1.08080000      -0.67540000
C        1.44900000      -0.20430000      -0.17490000
C        2.99210000      -0.21090000      -0.39690000
C        3.19230000       0.12190000       1.10390000
C        1.74140000      -0.35930000       1.36490000
C        0.91200000       0.31480000       2.47240000
C       -0.52970000      -0.21590000       2.47760000
C        1.57510000       0.06170000       3.83140000
O        0.90910000       1.74310000       2.33420000
H        1.30260000       1.97660000      -0.31600000
H        0.81610000       1.10770000      -1.77070000
H       -0.26920000       1.14850000      -0.38630000
H        0.91990000      -1.05880000      -0.60870000
H        3.36740000      -1.20610000      -0.65150000
H        3.38300000       0.50270000      -1.12780000
H        4.00070000      -0.38880000       1.63260000
H        3.28010000       1.19700000       1.28040000
H        1.75480000      -1.43430000       1.58310000
H       -0.55260000      -1.29520000       2.65930000
H       -1.11020000       0.27850000       3.26250000
H       -1.02730000      -0.03410000       1.51870000
H        2.58620000       0.47720000       3.84510000
H        0.99890000       0.54620000       4.62480000
H        1.63580000      -1.00930000       4.04650000
H        0.32670000       1.96960000       1.60390000
