18
Properties=species:S:1:pos:R:3 gdb_40507=T pbc="F F F"
C        0.06410000       1.45760000      -0.07700000
O        1.18610000       0.57400000      -0.08340000
C       -0.12480000       0.00540000       0.05070000
C       -0.43730000      -0.63800000       1.34440000
C        0.00920000      -0.25850000       2.74770000
N       -0.38010000      -1.64760000       3.21870000
C       -1.88760000      -1.60430000       3.04820000
C       -1.68700000      -1.53240000       1.54490000
C       -0.30750000      -2.08630000       1.73760000
H       -0.02760000       2.08960000       0.80540000
H       -0.15320000       1.95050000      -1.02380000
H       -0.45970000      -0.53850000      -0.83450000
H        1.09270000      -0.13950000       2.81170000
H       -0.49020000       0.55830000       3.28200000
H       -2.31420000      -2.55870000       3.36760000
H       -2.38390000      -0.78190000       3.57570000
H       -2.38150000      -1.71880000       0.73450000
H        0.24520000      -2.92860000       1.34670000
