22
Properties=species:S:1:pos:R:3 gdb_100431=T pbc="F F F"
C       -0.20020000       1.46120000      -0.02470000
O       -0.07330000       0.04580000       0.09450000
C       -1.22970000      -0.65580000       0.16710000
C       -0.93030000      -2.13500000       0.27910000
N       -2.34600000      -0.05920000       0.13110000
C       -3.58810000      -0.80550000       0.22100000
C       -4.36400000      -0.43080000       1.46870000
C       -5.21010000       0.81270000       1.49030000
C       -5.86720000      -0.54670000       1.48230000
H        0.82020000       1.84660000      -0.05930000
H       -0.74330000       1.72960000      -0.93550000
H       -0.74130000       1.87850000       0.82920000
H        0.14590000      -2.28870000       0.35610000
H       -1.41430000      -2.56730000       1.15900000
H       -1.29960000      -2.67370000      -0.59860000
H       -4.19970000      -0.54930000      -0.65530000
H       -3.44920000      -1.89750000       0.19560000
H       -3.85320000      -0.67790000       2.39600000
H       -5.24750000       1.39780000       2.40250000
H       -5.25460000       1.40490000       0.58230000
H       -6.35920000      -0.86690000       0.56920000
H       -6.35080000      -0.89390000       2.38860000
