24
Properties=species:S:1:pos:R:3 gdb_101706=T pbc="F F F"
C       -0.17690000       1.55110000      -0.17300000
C       -0.05890000       0.03090000      -0.00980000
C       -1.43790000      -0.61350000       0.13740000
O       -2.06440000      -0.08020000       1.29540000
C        0.71890000      -0.64450000      -1.15510000
C        2.16580000      -0.19270000      -1.25750000
C        3.02670000      -0.58630000      -2.40960000
N        2.67920000       0.81320000      -2.19680000
C        1.80440000       1.43140000      -3.17990000
H        0.80760000       2.02630000      -0.20300000
H       -0.70130000       1.80350000      -1.10290000
H       -0.74370000       1.97740000       0.65740000
H        0.48040000      -0.17120000       0.92680000
H       -2.03680000      -0.41030000      -0.76700000
H       -1.32820000      -1.70720000       0.21840000
H       -2.95660000      -0.43440000       1.34600000
H        0.71840000      -1.73010000      -0.98620000
H        0.19570000      -0.48860000      -2.10610000
H        2.65420000      -0.12020000      -0.28500000
H        4.07050000      -0.85640000      -2.26710000
H        2.53400000      -1.10740000      -3.23150000
H        1.06410000       0.75250000      -3.63340000
H        1.26790000       2.26770000      -2.72230000
H        2.42540000       1.82870000      -3.98960000
