21
Properties=species:S:1:pos:R:3 gdb_94684=T pbc="F F F"
C        0.03840000       1.56530000      -0.06480000
C        0.04540000       0.04880000       0.03030000
O        0.74230000      -0.48280000      -1.09580000
C        1.20340000      -1.79070000      -0.76200000
C        1.49210000      -1.77040000       0.73150000
C        1.55590000      -3.06490000       1.49970000
C        2.26710000      -0.54840000       1.19650000
C        0.75890000      -0.55560000       1.23670000
O        0.07090000      -0.60050000       2.44740000
H        1.05820000       1.96080000      -0.04740000
H       -0.44220000       1.88990000      -0.99170000
H       -0.52030000       1.99260000       0.77480000
H       -0.99400000      -0.32320000       0.05370000
H        0.43390000      -2.55050000      -0.97990000
H        2.07730000      -1.99720000      -1.38950000
H        2.47020000      -3.62450000       1.27280000
H        1.53050000      -2.87230000       2.57560000
H        0.70140000      -3.70710000       1.25820000
H        2.77050000      -0.64160000       2.15330000
H        2.77550000       0.06900000       0.46220000
H        0.23050000       0.22570000       2.91550000
