12
Properties=species:S:1:pos:R:3 gdb_132683=T pbc="F F F"
O        0.09010000       1.34720000       0.10070000
C        0.07030000       0.00090000       0.04310000
N        0.09210000      -0.59670000      -1.13380000
C        0.07250000      -1.93530000      -1.19310000
C        0.02970000      -2.70950000      -0.04960000
F        0.01090000      -4.04170000      -0.13750000
C        0.00590000      -2.10210000       1.20480000
C        0.02670000      -0.72500000       1.24500000
F        0.00610000      -0.07640000       2.40580000
H        0.11940000       1.65270000      -0.81640000
H        0.09130000      -2.39880000      -2.17400000
H       -0.02760000      -2.68640000       2.11590000
