18
Properties=species:S:1:pos:R:3 gdb_55983=T pbc="F F F"
N        0.61400000       0.22430000      -0.80380000
C        0.14130000       0.01420000       0.45310000
O        0.65450000       0.49010000       1.44880000
C       -1.11320000      -0.86610000       0.53800000
C       -1.00580000      -2.22210000      -0.16490000
C       -2.18050000      -3.25060000      -0.04390000
C       -2.10310000      -3.53590000      -1.57450000
C       -1.21230000      -2.29770000      -1.68710000
O       -0.91440000      -1.56750000      -2.59580000
H        1.42850000       0.80750000      -0.90400000
H        0.17790000      -0.17830000      -1.62370000
H       -1.30270000      -1.01720000       1.60290000
H       -1.96510000      -0.30880000       0.12750000
H       -0.05470000      -2.70780000       0.08920000
H       -2.00650000      -4.09850000       0.61850000
H       -3.11790000      -2.76490000       0.23690000
H       -1.55070000      -4.44960000      -1.81710000
H       -3.02460000      -3.52050000      -2.16080000
