13
Properties=species:S:1:pos:R:3 gdb_15211=T pbc="F F F"
O        0.07900000       1.37560000       0.04580000
C       -0.00480000       0.00530000      -0.02450000
C       -1.34500000      -0.69900000      -0.00970000
C       -2.51820000       0.11750000       0.04080000
C       -3.45920000       0.86540000       0.09460000
C       -0.47330000      -0.70380000      -1.29240000
C       -0.87470000       0.07300000      -2.42620000
N       -1.18890000       0.70640000      -3.34160000
H       -0.80940000       1.75090000      -0.03280000
H        0.81340000      -0.47270000       0.50400000
H       -1.40360000      -1.65300000       0.50410000
H       -4.31340000       1.49680000       0.12300000
H       -0.00240000      -1.65110000      -1.53290000
