17
Properties=species:S:1:pos:R:3 gdb_125934=T pbc="F F F"
C        0.23170000       1.47620000       0.08510000
C       -0.03490000      -0.02570000      -0.03630000
C        0.66360000      -0.64480000      -1.30850000
C        1.87200000      -1.26980000      -0.68840000
N        3.02500000      -1.82890000      -1.02300000
N        3.52980000      -2.16780000       0.16760000
N        2.79010000      -1.86610000       1.26340000
C        1.73450000      -1.29930000       0.70220000
N        0.52020000      -0.78330000       1.13230000
H        1.30810000       1.67970000       0.09460000
H       -0.21230000       2.01750000      -0.75680000
H       -0.20250000       1.88010000       1.00620000
H       -1.11420000      -0.19850000      -0.07860000
H        0.01750000      -1.39200000      -1.78310000
H        0.87800000       0.12530000      -2.05490000
H        4.43740000      -2.59130000       0.25350000
H        0.52370000      -0.26960000       2.00370000
