14
Properties=species:S:1:pos:R:3 gdb_7236=T pbc="F F F"
N       -0.03960000       0.57750000       1.11110000
C        0.15140000      -0.04530000      -0.11840000
N        1.23030000       0.07850000      -0.77710000
C       -0.97050000      -0.96460000      -0.58850000
O       -1.05570000      -1.31590000      -1.74640000
N       -1.83950000      -1.37060000       0.40030000
C       -2.91930000      -2.21590000       0.17730000
N       -3.63270000      -2.59910000       1.15400000
H        0.71610000       1.21490000       1.33070000
H       -0.94680000       1.00520000       1.24440000
H        1.17830000      -0.51720000      -1.60580000
H       -1.62750000      -1.14350000       1.36290000
H       -3.03850000      -2.46380000      -0.87890000
H       -4.38260000      -3.20650000       0.82870000
