18
Properties=species:S:1:pos:R:3 gdb_85876=T pbc="F F F"
C        0.51090000       1.38100000      -0.24570000
C       -0.01120000      -0.03320000      -0.04120000
O       -1.41350000      -0.06560000       0.10110000
C        0.60740000      -1.08930000      -1.01470000
C        1.59410000      -1.52520000       0.08830000
O        2.82650000      -0.87190000      -0.09810000
C        0.65770000      -0.82200000       1.13800000
C        1.30550000      -0.11310000       2.22150000
N        1.88420000       0.44270000       3.05530000
H        1.60010000       1.38700000      -0.31730000
H        0.10880000       1.79260000      -1.18010000
H        0.20600000       2.02710000       0.58290000
H       -1.79660000       0.59170000      -0.48910000
H       -0.12200000      -1.86870000      -1.24390000
H        1.07130000      -0.72300000      -1.93220000
H        1.72640000      -2.60190000       0.24440000
H        3.32290000      -0.90500000       0.72840000
H       -0.07630000      -1.52990000       1.53140000
