20
Properties=species:S:1:pos:R:3 gdb_22107=T pbc="F F F"
C        0.88840000       0.83340000      -0.92160000
C       -0.04860000       0.12110000       0.07240000
C        0.71570000      -0.73440000       1.05090000
C        0.85300000      -2.21540000       0.77250000
C       -0.49040000      -2.91140000       1.03830000
C       -0.70000000      -3.42480000       2.44760000
O       -1.32910000      -3.00580000       0.17290000
N        1.27280000      -0.32000000       2.12580000
O        1.09080000       1.06050000       2.31350000
H        1.48040000       0.11530000      -1.49830000
H        0.30720000       1.43180000      -1.62910000
H        1.57620000       1.49670000      -0.39160000
H       -0.62000000       0.86960000       0.62820000
H       -0.75580000      -0.51450000      -0.46820000
H        1.10790000      -2.37280000      -0.28010000
H        1.63610000      -2.62810000       1.41220000
H       -0.03800000      -4.28110000       2.62510000
H       -0.42310000      -2.65530000       3.17550000
H       -1.73640000      -3.73320000       2.58810000
H        1.55530000       1.21350000       3.14290000
