19
Properties=species:S:1:pos:R:3 gdb_85172=T pbc="F F F"
C        0.09420000       1.58840000      -0.13700000
C        0.05080000       0.07380000      -0.00470000
N        1.10550000      -0.65770000      -0.72660000
C        1.65080000      -1.26880000       0.36930000
O        2.58200000      -2.02010000       0.51490000
C        0.62100000      -0.58510000       1.30670000
C        1.17780000       0.29820000       2.39500000
C        2.30780000      -0.17070000       3.23590000
N        2.49970000       0.94050000       2.28440000
H        1.06710000       1.99020000       0.15610000
H       -0.11140000       1.89050000      -1.16940000
H       -0.67120000       2.04570000       0.49870000
H       -0.95030000      -0.29830000      -0.25390000
H        1.31320000      -0.74940000      -1.71080000
H       -0.07760000      -1.31120000       1.73500000
H        0.43650000       0.94500000       2.86210000
H        2.35290000       0.10830000       4.28470000
H        2.74810000      -1.13130000       2.98540000
H        2.99450000       0.58380000       1.46950000
