17
Properties=species:S:1:pos:R:3 gdb_53461=T pbc="F F F"
C        0.02970000       1.42490000       0.52820000
C        0.00450000       0.03130000       0.10810000
C       -0.01920000      -1.12050000      -0.23730000
C       -0.04080000      -2.52280000      -0.66020000
C       -1.36430000      -3.14520000      -0.57140000
C       -2.44620000      -3.66330000      -0.49850000
C       -3.76900000      -4.28520000      -0.41160000
C       -3.78990000      -5.51360000       0.38540000
C       -3.81980000      -6.52230000       1.03570000
H        0.71790000       1.57620000       1.36700000
H        0.35150000       2.08180000      -0.28750000
H       -0.96290000       1.75860000       0.85010000
H        0.32840000      -2.60100000      -1.69250000
H        0.66880000      -3.10110000      -0.05180000
H       -4.48260000      -3.56630000       0.01420000
H       -4.14030000      -4.50460000      -1.42230000
H       -3.84100000      -7.41340000       1.61250000
