19
Properties=species:S:1:pos:R:3 gdb_97740=T pbc="F F F"
C       -0.81520000       0.22710000      -0.09710000
C        0.62300000       0.64680000       0.25870000
C        1.24060000      -0.22110000       1.25700000
C        1.75600000      -0.97990000       2.04270000
C        2.31950000      -1.84650000       3.03050000
C        1.56590000      -1.97380000       4.36040000
O        0.31430000      -1.35860000       4.45050000
C        1.60610000      -3.15340000       3.43590000
O        0.42700000      -3.53310000       2.82630000
H       -1.46160000       0.26380000       0.78440000
H       -1.23070000       0.89750000      -0.85510000
H       -0.83560000      -0.79380000      -0.48710000
H        1.24040000       0.64020000      -0.64880000
H        0.62550000       1.68500000       0.61540000
H        3.40370000      -1.86300000       3.09690000
H        2.13360000      -1.96120000       5.28700000
H        0.31900000      -0.59340000       3.85700000
H        2.25290000      -3.99330000       3.67130000
H       -0.25150000      -2.93600000       3.17690000
