16
Properties=species:S:1:pos:R:3 gdb_64604=T pbc="F F F"
C       -0.01980000       1.59770000       0.02110000
C        0.05080000       0.07520000       0.01180000
C       -1.35370000      -0.55300000      -0.08590000
O       -2.37560000       0.07250000      -0.09640000
N        0.81620000      -0.45030000      -1.14240000
C        1.72120000      -1.20720000      -0.65520000
N        1.74430000      -1.31910000       0.72690000
C        0.74570000      -0.49950000       1.25970000
N        0.42430000      -0.25490000       2.46120000
H        0.98660000       2.02330000       0.02480000
H       -0.55270000       1.95050000      -0.86350000
H       -0.55100000       1.93050000       0.91480000
H       -1.33830000      -1.66170000      -0.16540000
H        2.45140000      -1.74880000      -1.24840000
H        2.45020000      -1.79460000       1.26470000
H        1.01560000      -0.74530000       3.13370000
