19
Properties=species:S:1:pos:R:3 gdb_74542=T pbc="F F F"
C        0.14920000       1.53860000       0.04330000
C        0.04820000       0.05560000       0.00130000
C        0.00750000      -0.83590000      -0.99230000
C       -0.07070000      -2.17280000      -0.23850000
C       -0.97330000      -3.25320000      -0.88420000
C       -2.16610000      -2.37610000      -0.25900000
C       -1.10790000      -1.94680000       0.81890000
C       -0.00090000      -0.88650000       1.21190000
O        0.98940000      -1.94290000       0.81580000
H        1.05810000       1.85980000       0.56790000
H        0.16780000       1.96660000      -0.96260000
H       -0.69660000       1.98110000       0.58470000
H        0.03270000      -0.70190000      -2.06490000
H       -0.93660000      -3.37480000      -1.97050000
H       -0.91240000      -4.22720000      -0.39540000
H       -2.46350000      -1.58070000      -0.94420000
H       -3.04480000      -2.91700000       0.09790000
H       -1.05200000      -2.74860000       1.56070000
H        0.16210000      -0.50760000       2.22220000
