20
Properties=species:S:1:pos:R:3 gdb_81864=T pbc="F F F"
C       -0.19610000       1.56880000       0.01190000
C        0.05190000       0.06100000      -0.05920000
C        0.88750000      -0.45410000      -1.22120000
C        2.36030000      -0.08900000      -1.29250000
C        1.92830000      -1.39950000      -0.66940000
C        2.27490000      -2.73850000      -1.26600000
N        1.74520000      -1.35890000       0.76050000
C        0.80550000      -0.45090000       1.18730000
O        0.61770000      -0.10810000       2.33380000
H        0.74170000       2.12750000      -0.06690000
H       -0.85490000       1.89790000      -0.79700000
H       -0.65900000       1.81940000       0.96980000
H       -0.91960000      -0.45140000      -0.06580000
H        0.38890000      -0.69640000      -2.15300000
H        2.82150000      -0.11990000      -2.27420000
H        2.74750000       0.68410000      -0.63630000
H        2.30110000      -2.67640000      -2.35750000
H        3.26180000      -3.08100000      -0.93250000
H        1.53920000      -3.49710000      -0.97960000
H        2.46230000      -1.66010000       1.40410000
