19
Properties=species:S:1:pos:R:3 gdb_36770=T pbc="F F F"
C       -0.01270000      -1.14610000      -0.34010000
C        0.01550000       0.01940000      -0.04890000
C        0.08530000       1.43340000       0.29230000
C        1.46180000       2.03410000      -0.01080000
O        1.41850000       3.39870000       0.35600000
C        2.63100000       4.07300000       0.16610000
C        2.96520000       4.58290000      -1.25890000
O        3.02790000       5.94450000      -0.78690000
C        2.55620000       5.56480000       0.52280000
H       -0.05290000      -2.17660000      -0.59270000
H       -0.67260000       1.99810000      -0.26340000
H       -0.13410000       1.58150000       1.35630000
H        2.24140000       1.50300000       0.55730000
H        1.69440000       1.91780000      -1.08000000
H        3.45750000       3.52970000       0.64490000
H        3.91300000       4.25880000      -1.70340000
H        2.14750000       4.42690000      -1.97540000
H        1.52840000       5.89840000       0.71260000
H        3.21560000       5.92360000       1.32040000
