14
Properties=species:S:1:pos:R:3 gdb_50958=T pbc="F F F"
O       -0.04350000      -0.03300000       0.12600000
C        0.00340000       1.15380000       0.18520000
O        1.09640000       1.85460000      -0.21360000
C        1.04360000       3.28460000      -0.14690000
C        2.26070000       3.76480000       0.67680000
C        2.17490000       3.32890000       2.06780000
N        2.07760000       2.98860000       3.16720000
C        1.06200000       3.85230000      -1.49050000
C        1.09200000       4.33910000      -2.58740000
H       -0.80810000       1.80450000       0.56260000
H        0.12360000       3.59080000       0.36960000
H        3.17240000       3.37030000       0.21900000
H        2.31310000       4.85700000       0.63820000
H        1.10710000       4.76030000      -3.56320000
