21
Properties=species:S:1:pos:R:3 gdb_101131=T pbc="F F F"
C       -0.95510000       1.63400000       0.08120000
O       -0.84790000       0.35030000       0.65170000
C       -1.20370000      -0.71730000      -0.21950000
C       -0.11760000      -1.02680000      -1.25100000
C       -1.50320000      -1.88920000       0.67530000
C       -2.36320000      -1.90460000       1.95060000
C       -1.49900000      -3.11230000       2.46020000
C       -0.69490000      -3.02580000       1.15710000
O       -1.62850000      -3.18470000       0.07530000
H       -0.75350000       2.35590000       0.87660000
H       -0.23080000       1.79940000      -0.72940000
H       -1.96540000       1.81840000      -0.31680000
H       -2.13710000      -0.45040000      -0.74800000
H        0.83490000      -1.21510000      -0.74650000
H       -0.39270000      -1.91330000      -1.82640000
H        0.01770000      -0.19220000      -1.94360000
H       -2.22970000      -1.00670000       2.55480000
H       -3.42720000      -2.09260000       1.78710000
H       -0.91120000      -2.86250000       3.34640000
H       -2.01760000      -4.06060000       2.61890000
H        0.33330000      -3.30670000       0.95980000
