21
Properties=species:S:1:pos:R:3 gdb_115367=T pbc="F F F"
C       -0.00010000       1.39510000       0.07290000
O       -0.00100000      -0.00480000      -0.07930000
C       -1.29010000      -0.60570000      -0.00990000
C       -1.22290000      -1.93770000      -0.75490000
C       -2.49170000      -2.75780000      -0.50130000
C       -2.66420000      -3.08670000       0.99010000
O       -1.87340000      -4.21160000       1.39290000
C       -2.35180000      -1.89780000       1.86440000
C       -1.72930000      -0.80430000       1.42360000
H        1.03340000       1.73100000      -0.04320000
H       -0.62150000       1.88670000      -0.69250000
H       -0.35910000       1.71810000       1.06170000
H       -2.01580000       0.05480000      -0.51960000
H       -1.07010000      -1.75620000      -1.82260000
H       -0.33830000      -2.47950000      -0.39750000
H       -3.36800000      -2.19130000      -0.84330000
H       -2.47220000      -3.69580000      -1.06340000
H       -3.69570000      -3.41410000       1.16570000
H       -0.96360000      -3.90640000       1.47680000
H       -2.61400000      -1.99470000       2.91530000
H       -1.50650000       0.00710000       2.11240000
