17
Properties=species:S:1:pos:R:3 gdb_24624=T pbc="F F F"
C        0.11330000       1.60510000       0.23760000
C        1.31360000       0.73960000      -0.11090000
C       -0.03160000       0.12560000       0.09680000
C       -0.50490000      -0.94460000       1.12420000
C       -1.27150000      -1.53190000      -0.05700000
C       -2.08240000      -2.36010000      -0.79110000
N       -2.12140000      -1.89120000      -2.09000000
C       -1.35970000      -0.81130000      -2.14870000
N       -0.82740000      -0.56880000      -0.91970000
H        0.05030000       2.02680000       1.23510000
H       -0.30340000       2.23160000      -0.54340000
H        1.69680000       0.78940000      -1.12420000
H        2.06940000       0.57100000       0.64880000
H        0.29390000      -1.56850000       1.53330000
H       -1.11470000      -0.55280000       1.94240000
H       -2.63190000      -3.24010000      -0.49740000
H       -1.18010000      -0.20940000      -3.02510000
