21
Properties=species:S:1:pos:R:3 gdb_66365=T pbc="F F F"
N       -0.05370000       1.47100000       0.06900000
C        0.01330000       0.00760000      -0.02080000
C        0.77650000      -0.53490000       1.20980000
C        0.74860000      -2.06560000       1.29610000
C       -0.68980000      -2.60290000       1.27710000
C       -1.45900000      -2.09020000       0.05100000
C       -1.42540000      -0.55940000      -0.03210000
C        0.71630000      -0.41810000      -1.25900000
N        1.26960000      -0.70570000      -2.23380000
H        0.88490000       1.86220000       0.05380000
H       -0.53250000       1.84640000      -0.74580000
H        1.80880000      -0.16740000       1.18940000
H        0.29330000      -0.09100000       2.08780000
H        1.31000000      -2.48940000       0.45390000
H        1.26490000      -2.38560000       2.20730000
H       -0.68420000      -3.69800000       1.28890000
H       -1.20870000      -2.28180000       2.19100000
H       -1.02160000      -2.51540000      -0.86110000
H       -2.50030000      -2.42740000       0.08380000
H       -1.93420000      -0.11580000       0.83140000
H       -1.94800000      -0.20920000      -0.92950000
