20
Properties=species:S:1:pos:R:3 gdb_100817=T pbc="F F F"
C        0.10320000       1.33720000      -0.21180000
O        0.01020000      -0.04390000       0.06420000
C       -1.30430000      -0.59610000       0.03740000
C       -1.86690000      -0.70680000      -1.37900000
C       -1.14840000      -1.97950000       0.69550000
O       -0.18510000      -2.75000000       0.01130000
C       -0.78950000      -1.83100000       2.19380000
C       -0.63880000      -3.11770000       2.86570000
N       -0.53460000      -4.13220000       3.40840000
H        1.14200000       1.62790000      -0.03900000
H       -0.15820000       1.57630000      -1.25120000
H       -0.54580000       1.92400000       0.45530000
H       -1.97210000       0.02690000       0.65560000
H       -1.91660000       0.26860000      -1.86940000
H       -1.24400000      -1.37620000      -1.97690000
H       -2.88250000      -1.11350000      -1.34840000
H       -2.09460000      -2.52380000       0.61090000
H        0.58180000      -2.17540000      -0.11290000
H        0.14250000      -1.26310000       2.27840000
H       -1.56710000      -1.25600000       2.71060000
