18
Properties=species:S:1:pos:R:3 gdb_36008=T pbc="F F F"
C       -0.00790000      -1.20150000       0.12700000
C        0.01430000      -0.00070000       0.10440000
C        0.07600000       1.45330000       0.08590000
C        1.51310000       2.00850000      -0.12960000
C        2.04050000       1.60400000      -1.43930000
N        2.45140000       1.31540000      -2.47990000
C        1.55270000       3.52310000       0.01700000
C        1.67240000       4.13050000       1.39230000
C        2.82670000       4.21200000       0.42430000
H       -0.03630000      -2.26310000       0.13530000
H       -0.57960000       1.84980000      -0.69840000
H       -0.29010000       1.85870000       1.03600000
H        2.16230000       1.56280000       0.63400000
H        0.92450000       4.04780000      -0.69710000
H        1.10770000       5.03090000       1.60510000
H        1.76960000       3.45750000       2.23840000
H        3.69660000       3.59370000       0.61920000
H        3.05630000       5.16830000      -0.03100000
