14
Properties=species:S:1:pos:R:3 gdb_20666=T pbc="F F F"
C       -0.03800000       1.54190000       0.00770000
C       -0.01250000       0.04710000      -0.01660000
C       -0.02900000      -0.79670000      -1.10440000
N        0.00740000      -2.06460000      -0.61800000
N        0.04650000      -2.12330000       0.71840000
C        0.03510000      -0.83820000       1.10090000
C        0.06750000      -0.46520000       2.46780000
C        0.09350000      -0.09320000       3.61240000
H        0.84840000       1.94860000       0.50650000
H       -0.07280000       1.95340000      -1.00450000
H       -0.90970000       1.91780000       0.55430000
H       -0.06290000      -0.59380000      -2.16350000
H        0.00680000      -2.92510000      -1.13890000
H        0.11680000       0.21720000       4.62740000
