18
Properties=species:S:1:pos:R:3 gdb_74365=T pbc="F F F"
C        0.02280000       1.52320000       0.07480000
C       -0.01500000       0.02530000      -0.02930000
C       -0.05980000      -0.62790000      -1.18980000
C       -0.04020000      -2.14330000      -1.25920000
C        0.43160000      -2.71210000       0.09630000
O       -0.26170000      -2.10880000       1.16170000
C        0.01460000      -0.72760000       1.27920000
C       -1.35550000      -2.67310000      -1.64450000
N       -2.38730000      -3.08870000      -1.95830000
H        0.90710000       1.85890000       0.63110000
H        0.04340000       1.99250000      -0.91160000
H       -0.85210000       1.90210000       0.61730000
H       -0.11020000      -0.09030000      -2.13190000
H        0.67150000      -2.46450000      -2.03170000
H        0.24070000      -3.78530000       0.16240000
H        1.51680000      -2.54030000       0.17940000
H        0.99510000      -0.56910000       1.76650000
H       -0.74440000      -0.32510000       1.96000000
