17
Properties=species:S:1:pos:R:3 gdb_19016=T pbc="F F F"
C        0.02520000       1.48970000      -0.11560000
N       -0.03300000       0.04750000       0.04950000
C       -1.40040000      -0.50510000       0.24950000
C       -1.17410000      -1.38690000       1.47050000
C       -0.24780000      -0.62420000       2.46630000
O        0.44110000      -1.86260000       2.84340000
C        0.27530000      -1.96160000       1.39150000
C        0.67250000      -0.47750000       1.19490000
H        1.06800000       1.80630000      -0.21850000
H       -0.50140000       1.77690000      -1.03110000
H       -0.42260000       2.05400000       0.72390000
H       -2.13300000       0.28940000       0.44980000
H       -1.74090000      -1.06260000      -0.63090000
H       -1.97650000      -2.01210000       1.85860000
H       -0.50630000       0.07560000       3.26120000
H        0.64370000      -2.85380000       0.88550000
H        1.71150000      -0.17040000       1.30440000
