14
Properties=species:S:1:pos:R:3 gdb_29233=T pbc="F F F"
O       -0.09250000       1.36920000       0.01070000
C        0.01300000       0.01090000       0.00300000
C        1.16320000      -0.68600000      -0.00770000
O        1.22310000      -2.04190000      -0.01510000
C        0.06480000      -2.82210000      -0.01200000
N        0.14620000      -4.09160000      -0.01910000
C       -1.18230000      -2.09470000      -0.00050000
C       -1.22690000      -0.74140000       0.00680000
O       -2.35180000       0.00010000       0.01760000
H        0.78970000       1.75590000       0.00720000
H        2.14830000      -0.23440000      -0.01140000
H        1.12180000      -4.38770000      -0.02660000
H       -2.08350000      -2.69620000       0.00190000
H       -3.11570000      -0.58870000       0.01920000
