20
Properties=species:S:1:pos:R:3 gdb_90123=T pbc="F F F"
C       -0.08710000       1.64180000       0.08120000
N        0.00090000       0.19880000       0.01000000
C       -1.21490000      -0.59980000       0.46050000
C       -0.19720000      -1.64310000       0.98620000
C        0.63260000      -2.34490000       2.10310000
C        1.81620000      -1.66200000       1.23910000
C        1.65050000      -2.40660000      -0.07570000
O        0.21780000      -2.39360000      -0.18110000
C        0.76130000      -0.49270000       1.08510000
H        0.88260000       2.08080000      -0.17580000
H       -0.82220000       2.00550000      -0.64450000
H       -0.38030000       2.01660000       1.08150000
H       -1.77460000      -0.08840000       1.25610000
H       -1.87990000      -0.91600000      -0.34590000
H        0.53240000      -1.90950000       3.09700000
H        0.61610000      -3.43650000       2.13840000
H        2.81980000      -1.52040000       1.64110000
H        2.09890000      -1.88120000      -0.92720000
H        2.02500000      -3.43710000      -0.04870000
H        0.67050000       0.04450000       2.04000000
