19
Properties=species:S:1:pos:R:3 gdb_40803=T pbc="F F F"
C        0.39400000       1.52680000       0.19730000
O        1.23700000       0.43640000      -0.19310000
C       -0.12810000       0.15980000       0.11140000
C       -0.40210000      -0.69830000       1.32780000
C        0.11580000      -2.13220000       1.13910000
C        0.07110000      -2.87720000       2.44650000
C       -0.06020000      -2.23740000       3.60530000
C       -0.12590000      -0.73750000       3.67910000
O        0.20610000      -0.10060000       2.45990000
H        0.60730000       1.94330000       1.17720000
H        0.16150000       2.24160000      -0.59110000
H       -0.73280000      -0.11360000      -0.75600000
H       -1.49730000      -0.73220000       1.47100000
H       -0.49000000      -2.64770000       0.38300000
H        1.14020000      -2.09190000       0.74680000
H        0.14300000      -3.96100000       2.41700000
H       -0.12490000      -2.77390000       4.54800000
H       -1.12990000      -0.42050000       4.01880000
H        0.58930000      -0.35840000       4.41900000
