13
Properties=species:S:1:pos:R:3 gdb_3748=T pbc="F F F"
C        0.02600000       1.39620000       0.08580000
N        0.00450000      -0.04380000      -0.00160000
C       -0.16330000      -0.83800000      -1.07010000
N       -0.11580000      -2.11330000      -0.72530000
C        0.09340000      -2.04010000       0.62120000
N        0.26960000      -3.17170000       1.39200000
N        0.16990000      -0.81030000       1.11820000
H        0.99030000       1.73940000       0.47100000
H       -0.13290000       1.81150000      -0.91130000
H       -0.76490000       1.74790000       0.75430000
H       -0.31530000      -0.45290000      -2.06770000
H       -0.18480000      -3.98540000       1.00470000
H        0.06530000      -3.03360000       2.37080000
