18
Properties=species:S:1:pos:R:3 gdb_37255=T pbc="F F F"
C       -0.01840000       1.54490000       0.17620000
C        1.28120000       0.81120000      -0.02620000
C       -0.01260000       0.04110000       0.00590000
C       -0.39580000      -0.56460000      -1.30200000
C       -0.11200000       0.04800000      -2.61680000
C        1.21180000       0.83460000      -2.67860000
C        1.95160000       0.77690000      -1.36120000
C        1.89130000      -0.44280000      -2.25080000
N        0.59160000      -1.22320000      -2.22840000
H       -0.22640000       1.93380000       1.16660000
H       -0.40090000       2.14720000      -0.64070000
H        1.94570000       0.72410000       0.82750000
H       -0.23470000      -0.56520000       0.87770000
H       -1.29870000      -1.17030000      -1.27790000
H       -0.82770000       0.05520000      -3.43370000
H        1.46550000       1.52600000      -3.47090000
H        2.91800000       1.27200000      -1.41620000
H        2.76390000      -0.95610000      -2.63410000
