21
Properties=species:S:1:pos:R:3 gdb_100993=T pbc="F F F"
C       -0.03730000       1.64490000      -0.09560000
C       -0.02730000       0.12440000      -0.05550000
C        0.74580000      -0.55920000      -1.21410000
C        1.79410000      -0.90080000      -0.14230000
O        0.95540000      -0.37400000       0.91490000
C       -1.39330000      -0.49670000       0.26610000
O       -1.24030000      -1.89810000       0.48950000
C       -2.09750000       0.11320000       1.48760000
O       -3.24900000      -0.63530000       1.81150000
H        0.94570000       2.02510000      -0.38750000
H       -0.77280000       2.00770000      -0.82240000
H       -0.28240000       2.06380000       0.88390000
H        0.23310000      -1.42800000      -1.62670000
H        1.06980000       0.10200000      -2.01920000
H        2.01470000      -1.96340000       0.00470000
H        2.73810000      -0.34790000      -0.21390000
H       -2.04740000      -0.40060000      -0.60910000
H       -0.47270000      -1.96550000       1.07750000
H       -1.38530000       0.15070000       2.33040000
H       -2.42290000       1.13740000       1.28050000
H       -2.98730000      -1.55820000       1.69230000
