17
Properties=species:S:1:pos:R:3 gdb_53406=T pbc="F F F"
C        0.06710000       1.50590000      -0.26790000
C        0.04880000       0.05630000      -0.13960000
C        0.03280000      -1.14420000      -0.04130000
C       -0.00280000      -2.58530000       0.08720000
C        0.14200000      -3.20140000       1.50760000
O       -1.12370000      -3.88190000       1.39580000
C       -1.39890000      -3.30870000       0.10880000
C       -2.60780000      -2.39090000       0.13450000
O       -3.25700000      -2.11790000      -0.84000000
H        0.81780000       1.83040000      -0.99650000
H       -0.90570000       1.88270000      -0.60160000
H        0.30050000       1.98680000       0.68820000
H        0.66650000      -3.05450000      -0.63840000
H        0.97520000      -3.90050000       1.63720000
H        0.14610000      -2.46800000       2.32080000
H       -1.53320000      -4.06250000      -0.67470000
H       -2.84170000      -1.98880000       1.14530000
