22
Properties=species:S:1:pos:R:3 gdb_104215=T pbc="F F F"
C        0.09900000       1.50500000      -0.15720000
C       -0.03580000       0.05730000       0.32810000
C       -1.42870000      -0.54110000       0.11030000
C       -2.53060000       0.16260000       0.89390000
O       -1.75300000      -0.57100000      -1.31510000
C       -1.81930000      -2.01400000      -1.34740000
C       -1.48990000      -2.08190000       0.13490000
C       -0.70050000      -3.04710000       0.92240000
N       -2.16870000      -2.94910000       1.08520000
H        1.13890000       1.83840000      -0.09200000
H       -0.22050000       1.58390000      -1.20010000
H       -0.50570000       2.19590000       0.43780000
H        0.68580000      -0.57180000      -0.20500000
H        0.21670000      -0.01130000       1.39480000
H       -2.62720000       1.20170000       0.56830000
H       -3.49220000      -0.33210000       0.73380000
H       -2.31250000       0.16540000       1.96840000
H       -2.81800000      -2.38120000      -1.61290000
H       -1.07870000      -2.44580000      -2.03230000
H       -0.35330000      -3.97140000       0.46770000
H       -0.05900000      -2.66460000       1.71290000
H       -2.39560000      -2.43880000       1.93620000
