17
Properties=species:S:1:pos:R:3 gdb_93297=T pbc="F F F"
C        0.41650000       1.43750000      -0.37340000
C       -0.09910000       0.10500000       0.17000000
O       -0.04630000      -0.91500000      -0.84940000
C        1.15820000      -1.65300000      -0.74570000
C        1.61850000      -1.52080000       0.70190000
O        2.49830000      -2.12120000       1.25760000
C        0.72350000      -0.45810000       1.31440000
C        1.07780000       0.19480000       2.57860000
O        0.08610000      -0.82740000       2.54400000
H        1.48160000       1.38300000      -0.62280000
H       -0.13410000       1.70300000      -1.27940000
H        0.28130000       2.23640000       0.36230000
H       -1.14760000       0.19340000       0.46850000
H        0.96950000      -2.69880000      -1.00700000
H        1.94460000      -1.27210000      -1.41770000
H        2.01420000      -0.08140000       3.06010000
H        0.70990000       1.20050000       2.77730000
