16
Properties=species:S:1:pos:R:3 gdb_107376=T pbc="F F F"
O        0.02110000       1.41610000       0.38490000
C        0.00860000       0.08870000      -0.10280000
C       -1.35740000      -0.53240000      -0.02980000
C       -1.95170000      -1.13820000       1.21490000
C       -1.68850000      -1.99840000      -0.01350000
N       -2.73860000      -2.09660000      -0.97860000
C       -3.14590000      -0.85590000      -1.42980000
O       -4.07680000      -0.58590000      -2.13140000
O       -2.27430000       0.08560000      -0.92310000
H       -0.58930000       1.92580000      -0.15950000
H        0.36990000       0.03470000      -1.14120000
H        0.70030000      -0.48260000       0.52420000
H       -1.27780000      -1.26030000       2.05590000
H       -2.97990000      -0.90500000       1.46920000
H       -0.93720000      -2.77990000      -0.01370000
H       -3.40820000      -2.84840000      -0.99760000
