21
Properties=species:S:1:pos:R:3 gdb_107099=T pbc="F F F"
C        0.05080000       1.54360000       0.21300000
C        0.01310000       0.04160000      -0.10190000
C       -1.38060000      -0.52470000      -0.09340000
C       -2.07970000      -0.98340000       1.15590000
C       -1.86980000      -1.97250000       0.04020000
C       -2.93300000      -1.75920000      -1.05210000
C       -2.43370000      -0.26980000      -1.18230000
C       -2.66280000      -2.54220000      -2.30660000
O       -3.46950000      -3.21620000      -2.89400000
H        1.07620000       1.92490000       0.19190000
H       -0.53170000       2.11600000      -0.51690000
H       -0.36670000       1.74770000       1.20420000
H        0.47370000      -0.13700000      -1.08300000
H        0.62590000      -0.50280000       0.62750000
H       -1.43500000      -1.12940000       2.01760000
H       -3.08080000      -0.63680000       1.40340000
H       -1.29950000      -2.88320000       0.18480000
H       -3.97410000      -1.90810000      -0.75310000
H       -3.18340000       0.50050000      -0.97930000
H       -1.99020000      -0.07320000      -2.16360000
H       -1.61340000      -2.44820000      -2.67800000
