15
Properties=species:S:1:pos:R:3 gdb_34154=T pbc="F F F"
N       -0.06600000      -1.10830000       0.09710000
C       -0.05590000       0.04730000       0.06740000
C       -0.02010000       1.48380000      -0.00710000
O       -0.63630000       2.28560000       1.04530000
C       -0.07560000       3.27310000       0.11210000
C        1.22720000       2.43780000      -0.06880000
C        1.67470000       2.53040000      -1.51990000
N        0.36000000       2.43010000      -2.21740000
C       -0.57200000       2.43260000      -1.12050000
H       -0.19680000       4.32680000       0.35620000
H        1.95390000       2.39240000       0.73930000
H        2.19250000       3.47380000      -1.72830000
H        2.33720000       1.70840000      -1.81080000
H        0.20130000       3.19800000      -2.85890000
H       -1.63050000       2.39770000      -1.36980000
