18
Properties=species:S:1:pos:R:3 gdb_93315=T pbc="F F F"
C       -0.36120000       1.45730000      -0.03840000
C        0.06740000      -0.00360000       0.01640000
C        1.05910000      -0.42470000      -1.07510000
O        1.66530000      -1.63550000      -0.59250000
C        1.54030000      -1.72390000       0.76330000
N        1.93370000      -2.68740000       1.47230000
C        0.82810000      -0.47410000       1.28850000
C        1.79900000       0.49830000       1.78160000
C        2.59940000       1.30480000       2.17330000
H        0.49590000       2.12420000       0.08690000
H       -0.83770000       1.68260000      -0.99820000
H       -1.08270000       1.68500000       0.75190000
H       -0.81630000      -0.64730000      -0.07030000
H        0.58750000      -0.64470000      -2.03560000
H        1.83760000       0.33420000      -1.22400000
H        2.38330000      -3.39970000       0.89390000
H        0.15100000      -0.75880000       2.09750000
H        3.31180000       2.00370000       2.53690000
