15
Properties=species:S:1:pos:R:3 gdb_7724=T pbc="F F F"
O        0.00630000      -0.07200000      -0.01350000
C       -0.05440000       1.13490000       0.01540000
C       -1.35170000       1.92210000       0.06470000
C       -1.19120000       3.29310000       0.72860000
C       -0.05060000       4.07410000       0.06880000
C        1.24930000       3.29110000       0.01960000
O        2.34630000       3.79820000      -0.00580000
N        1.10880000       1.90390000      -0.01360000
H       -1.69340000       2.04260000      -0.97260000
H       -2.09010000       1.29420000       0.56750000
H       -2.12500000       3.85780000       0.65820000
H       -0.97980000       3.16320000       1.79650000
H       -0.31420000       4.32340000      -0.96830000
H        0.16150000       5.01820000       0.57460000
H        1.97560000       1.37990000      -0.05480000
