14
Properties=species:S:1:pos:R:3 gdb_130081=T pbc="F F F"
N       -0.02140000       1.30250000       0.15330000
C        0.00960000      -0.07330000       0.05900000
N       -1.11610000      -0.79930000       0.03810000
N       -0.58890000      -2.06560000       0.01220000
C       -1.01060000      -3.38070000      -0.02000000
C        0.12430000      -4.13610000      -0.04050000
N        1.22750000      -3.27800000      -0.02300000
C        0.76380000      -1.99820000       0.01070000
N        1.20310000      -0.74910000       0.03830000
H        0.79970000       1.74320000      -0.23410000
H       -0.88420000       1.71040000      -0.17590000
H       -2.04720000      -3.66590000      -0.02450000
H        0.24430000      -5.20450000      -0.06550000
H        2.19380000      -3.54930000      -0.02280000
