25
Properties=species:S:1:pos:R:3 gdb_80858=T pbc="F F F"
C       -0.12660000       1.57370000      -0.04960000
C        0.01090000       0.05540000      -0.03280000
C        1.14970000      -0.57950000      -0.88960000
C        2.10380000      -0.28880000       0.30120000
C        0.82710000      -0.59170000       1.14760000
C        0.69180000      -0.13140000       2.58160000
C        0.65730000      -2.11060000       0.85310000
C       -0.65360000      -2.74740000       1.31350000
C        0.86850000      -2.08140000      -0.70220000
H        0.82200000       2.09570000       0.10350000
H       -0.53370000       1.90990000      -1.00970000
H       -0.81650000       1.91050000       0.73240000
H       -0.98020000      -0.38250000      -0.20180000
H        1.36550000      -0.22970000      -1.90070000
H        2.96740000      -0.94890000       0.43570000
H        2.42940000       0.75030000       0.36350000
H        0.85000000       0.94830000       2.67310000
H       -0.30190000      -0.35510000       2.98590000
H        1.42820000      -0.62850000       3.22480000
H        1.48150000      -2.65300000       1.33320000
H       -1.52840000      -2.22510000       0.91140000
H       -0.71400000      -3.78890000       0.97960000
H       -0.73820000      -2.74800000       2.40560000
H       -0.02670000      -2.40440000      -1.24470000
H        1.70190000      -2.71240000      -1.02590000
