15
Properties=species:S:1:pos:R:3 gdb_44092=T pbc="F F F"
O        0.03430000       0.05380000       0.19260000
C       -0.00630000       1.24080000       0.08000000
C       -1.16670000       2.27600000       0.04320000
C       -0.10370000       3.35120000       0.22840000
O       -0.12230000       4.69430000      -0.19540000
C        0.78740000       5.06330000       0.89110000
C        0.68140000       3.64710000       1.51370000
O        1.74010000       2.72230000       1.18900000
C        1.07650000       2.36420000      -0.04650000
H       -1.60210000       2.31020000      -0.96410000
H       -1.97050000       2.17340000       0.77520000
H        1.78710000       5.31900000       0.52680000
H        0.37140000       5.88400000       1.48310000
H        0.32780000       3.55550000       2.54150000
H        1.73420000       2.34360000      -0.91870000
