15
Properties=species:S:1:pos:R:3 gdb_27124=T pbc="F F F"
N       -0.23450000       1.33010000       0.36350000
C       -0.07710000      -0.03280000       0.07890000
C       -1.03740000      -0.91950000      -0.29960000
O       -2.33420000      -0.72690000      -0.64340000
C       -3.28270000      -1.15530000       0.24980000
N       -4.49670000      -1.04030000      -0.05020000
O       -0.53540000      -2.18440000      -0.41340000
C        0.78330000      -2.09520000      -0.09760000
C        1.12200000      -0.81690000       0.21080000
H        0.54810000       1.88570000       0.04170000
H       -1.08980000       1.70170000      -0.03220000
H       -2.84110000      -1.56270000       1.16600000
H       -5.07950000      -1.38980000       0.70770000
H        1.33650000      -3.01850000      -0.13400000
H        2.09740000      -0.46130000       0.50480000
