20
Properties=species:S:1:pos:R:3 gdb_95849=T pbc="F F F"
C        0.00340000       1.59450000       0.00080000
C        0.02910000       0.06510000      -0.03330000
C        0.76190000      -0.47890000      -1.27130000
C        0.84170000      -2.00410000      -1.23250000
O        1.46040000      -2.47250000      -0.03160000
C        0.80170000      -2.05220000       1.14500000
C        0.68570000      -0.51820000       1.22780000
C       -0.52990000      -2.69660000       1.27360000
N       -1.56820000      -3.19480000       1.36990000
H        1.01940000       2.00430000       0.04240000
H       -0.48270000       1.99950000      -0.89270000
H       -0.54180000       1.96340000       0.87590000
H       -1.00830000      -0.29700000      -0.06890000
H        0.25290000      -0.16460000      -2.19000000
H        1.77870000      -0.06620000      -1.30570000
H       -0.16310000      -2.44350000      -1.32660000
H        1.45920000      -2.39710000      -2.04370000
H        1.41660000      -2.42290000       1.97180000
H        1.70460000      -0.12550000       1.33000000
H        0.13130000      -0.23840000       2.13000000
