15
Properties=species:S:1:pos:R:3 gdb_67146=T pbc="F F F"
O       -0.22280000       1.37230000       0.17680000
C       -0.05270000       0.03190000       0.01900000
C       -1.02870000      -1.09470000      -0.04440000
C       -0.37130000      -1.69640000      -1.28790000
C        0.88760000      -0.87320000      -0.89090000
C        1.33680000      -1.51740000       0.45120000
O        2.38110000      -1.94080000       0.85900000
C        0.04600000      -1.09000000       1.08860000
O       -0.28180000      -0.95060000       2.41050000
H        0.42260000       1.70290000       0.81320000
H       -2.06900000      -1.08760000       0.25900000
H       -0.24940000      -2.78470000      -1.32800000
H       -0.83510000      -1.33660000      -2.21000000
H        1.62800000      -0.53610000      -1.61030000
H       -0.74730000      -1.74000000       2.70840000
