21
Properties=species:S:1:pos:R:3 gdb_62918=T pbc="F F F"
C       -0.18560000       1.60530000       0.04600000
C       -0.00920000       0.09300000       0.00920000
C       -1.35910000      -0.61050000       0.17750000
C        0.82120000      -0.58140000      -1.12670000
C        2.07490000       0.21120000      -1.53270000
C        2.85730000       0.57300000      -0.28630000
C        2.37740000       0.19540000       0.89890000
C        1.09760000      -0.61070000       0.87050000
O        1.23030000      -1.61320000      -0.18590000
H        0.76000000       2.14470000      -0.02920000
H       -0.83400000       1.93130000      -0.77580000
H       -0.67180000       1.91170000       0.97950000
H       -2.05230000      -0.31480000      -0.61860000
H       -1.24110000      -1.69580000       0.14630000
H       -1.82130000      -0.33900000       1.13340000
H        0.28080000      -0.99280000      -1.98570000
H        2.69040000      -0.39540000      -2.20980000
H        1.79670000       1.11340000      -2.09490000
H        3.78530000       1.12750000      -0.39150000
H        2.86160000       0.43310000       1.84000000
H        0.81730000      -1.05420000       1.82950000
