22
Properties=species:S:1:pos:R:3 gdb_111238=T pbc="F F F"
C       -0.10490000       1.54730000       0.07990000
C       -0.03680000       0.03510000      -0.15430000
C       -1.40420000      -0.62620000      -0.03770000
C       -1.47980000      -2.16840000       0.04870000
C       -1.36460000      -1.96350000       1.57330000
N       -1.96590000      -0.58860000       1.37790000
C       -3.42680000      -0.76370000       1.25660000
C       -3.80580000      -2.10480000       0.56350000
O       -2.78970000      -2.58460000      -0.32040000
H        0.88880000       2.00260000       0.03290000
H       -0.73240000       2.03580000      -0.67410000
H       -0.53620000       1.75620000       1.06280000
H        0.36160000      -0.17790000      -1.15490000
H        0.66550000      -0.41430000       0.55740000
H       -2.08970000      -0.19710000      -0.77780000
H       -0.77750000      -2.80280000      -0.50000000
H       -1.91400000      -2.63480000       2.23710000
H       -0.33510000      -1.88150000       1.92650000
H       -3.87970000      -0.73660000       2.25480000
H       -3.81510000       0.09500000       0.69950000
H       -4.00680000      -2.86980000       1.32640000
H       -4.71760000      -1.99920000      -0.03210000
