20
Properties=species:S:1:pos:R:3 gdb_78971=T pbc="F F F"
C       -0.20540000       1.56400000       0.00180000
C        0.04410000       0.05650000       0.01990000
C        0.86530000      -0.53640000      -1.12860000
C        2.38630000      -0.46860000      -0.67980000
C        2.35020000       0.11850000       0.74360000
C        0.98970000      -0.51900000       1.11490000
C        1.17340000      -1.97220000       0.59650000
C        2.24630000      -1.97880000      -0.43370000
N        0.81890000      -2.02850000      -0.86480000
H        0.70190000       2.14460000      -0.18520000
H       -0.92090000       1.81970000      -0.78680000
H       -0.62890000       1.90390000       0.95320000
H       -0.91970000      -0.46460000       0.05690000
H        0.60400000      -0.27620000      -2.15320000
H        3.13090000      -0.10560000      -1.38430000
H        3.17360000      -0.26630000       1.35390000
H        2.35710000       1.21010000       0.79680000
H        0.65960000      -0.42840000       2.14940000
H        0.90800000      -2.84720000       1.17620000
H        2.95120000      -2.77940000      -0.63080000
