23
Properties=species:S:1:pos:R:3 gdb_58264=T pbc="F F F"
C       -0.15640000       1.54660000       0.15380000
C       -0.02570000       0.02540000      -0.02070000
C       -1.40740000      -0.64250000      -0.00420000
C        0.74200000      -0.36970000      -1.30350000
O        0.11460000       0.13280000      -2.48320000
C        2.22280000       0.00230000      -1.28710000
C        3.14710000      -0.84180000      -0.37930000
O        3.82830000      -1.40600000      -1.51540000
C        3.06280000      -0.59750000      -2.43540000
H        0.81380000       2.05280000       0.18370000
H       -0.74890000       1.98940000      -0.65570000
H       -0.67390000       1.77960000       1.08920000
H        0.55510000      -0.36390000       0.82750000
H       -1.98580000      -0.34000000      -0.88250000
H       -1.32090000      -1.73400000      -0.02150000
H       -1.97110000      -0.36390000       0.89170000
H        0.67380000      -1.46060000      -1.40980000
H        0.20470000       1.09180000      -2.47890000
H        2.34510000       1.08280000      -1.16630000
H        3.82600000      -0.27090000       0.26710000
H        2.65000000      -1.61140000       0.22680000
H        2.50250000      -1.20250000      -3.15750000
H        3.69870000       0.11100000      -2.98100000
