17
Properties=species:S:1:pos:R:3 gdb_95746=T pbc="F F F"
O       -0.10700000       1.44640000       0.04100000
C        0.00440000       0.02710000       0.01070000
C       -1.42370000      -0.52100000      -0.02490000
O       -1.41000000      -1.91020000      -0.28840000
C       -0.94530000      -2.21960000      -1.58340000
C        0.32300000      -1.47150000      -1.95930000
C        0.75630000      -0.45230000      -1.20410000
C        0.97960000      -1.90120000      -3.14320000
C        1.49040000      -2.31440000      -4.15350000
H        0.77130000       1.81670000       0.17300000
H        0.50370000      -0.33650000       0.92390000
H       -1.91970000      -0.38410000       0.93840000
H       -1.98910000       0.03270000      -0.79050000
H       -0.76030000      -3.29830000      -1.60020000
H       -1.72090000      -2.00910000      -2.34060000
H        1.66750000       0.07660000      -1.47190000
H        1.95420000      -2.66180000      -5.04330000
