17
Properties=species:S:1:pos:R:3 gdb_114730=T pbc="F F F"
O        0.13450000       1.22400000      -0.41070000
C        0.02650000      -0.17560000      -0.27240000
C       -1.37760000      -0.57810000       0.18110000
O       -2.35200000      -0.09550000      -0.75080000
C       -3.12990000      -1.16200000      -1.24890000
C       -2.43660000      -2.15070000      -2.12050000
C       -2.68540000      -2.46570000      -0.63750000
C       -1.58480000      -2.09540000       0.30290000
O       -0.99150000      -2.81160000       1.06860000
H       -0.58330000       1.49560000      -0.99500000
H        0.27630000      -0.69490000      -1.21170000
H        0.74820000      -0.49080000       0.48660000
H       -1.57630000      -0.11540000       1.15720000
H       -4.16940000      -0.89440000      -1.39790000
H       -3.03340000      -2.72870000      -2.81740000
H       -1.42710000      -1.93620000      -2.45270000
H       -3.33950000      -3.28560000      -0.37220000
