19
Properties=species:S:1:pos:R:3 gdb_122361=T pbc="F F F"
O       -1.24910000       1.61070000      -0.04990000
C       -0.51720000       0.41590000      -0.14910000
C       -1.37350000      -0.84500000      -0.07720000
O       -2.13890000      -1.07490000      -1.26880000
C       -3.46790000      -0.67050000      -1.25100000
C       -3.87330000       0.67960000      -1.83240000
O       -2.89250000       1.54830000      -2.31150000
C       -4.07140000      -0.59330000      -2.63280000
O       -3.17180000      -0.72950000      -3.69950000
H       -1.72850000       1.73590000      -0.88550000
H        0.09010000       0.37280000      -1.06840000
H        0.18000000       0.39030000       0.69880000
H       -0.72520000      -1.72240000       0.03520000
H       -2.04350000      -0.79000000       0.78960000
H       -4.06910000      -1.07770000      -0.43830000
H       -4.72660000       1.19480000      -1.40290000
H       -2.57640000       1.14860000      -3.13930000
H       -5.06200000      -0.98750000      -2.83810000
H       -2.41500000      -1.22640000      -3.35660000
