20
Properties=species:S:1:pos:R:3 gdb_61860=T pbc="F F F"
C       -0.10460000       1.67490000       0.06240000
C        0.00860000       0.15620000      -0.00370000
C       -1.35040000      -0.54260000      -0.02340000
C       -1.25770000      -2.05280000       0.18170000
C       -2.47160000      -2.86040000      -0.22890000
O       -0.27110000      -2.56920000       0.65680000
O        0.69890000      -0.18210000      -1.21600000
C        1.78450000      -0.97980000      -1.13910000
N        2.41200000      -1.28120000      -2.19240000
H        0.88940000       2.12960000       0.05210000
H       -0.66310000       2.05880000      -0.79660000
H       -0.61850000       1.98410000       0.97790000
H        0.58160000      -0.21860000       0.85210000
H       -1.98900000      -0.14800000       0.77950000
H       -1.87050000      -0.32200000      -0.96260000
H       -3.39250000      -2.41330000       0.16080000
H       -2.55390000      -2.85490000      -1.32250000
H       -2.37410000      -3.88910000       0.11940000
H        2.01680000      -1.30620000      -0.11910000
H        3.19790000      -1.88480000      -1.95950000
