18
Properties=species:S:1:pos:R:3 gdb_98615=T pbc="F F F"
O       -1.46220000       1.65550000      -1.08310000
C       -1.83070000       0.30240000      -1.12070000
C       -1.29340000      -0.41600000       0.10920000
O       -0.67180000       0.13650000       0.98280000
C       -1.58200000      -1.90820000       0.13850000
C       -1.78350000      -2.66540000       1.46630000
C       -3.13690000      -1.92300000       1.53170000
N       -3.07190000      -2.33080000       0.04120000
C       -2.55920000      -3.67660000       0.59190000
H       -1.87280000       2.09530000      -1.83300000
H       -2.92250000       0.14550000      -1.13080000
H       -1.44240000      -0.22480000      -2.01070000
H       -0.97440000      -2.40850000      -0.62710000
H       -1.05700000      -2.84920000       2.26190000
H       -3.95920000      -2.40400000       2.06720000
H       -3.13100000      -0.84550000       1.70430000
H       -2.00350000      -4.26550000      -0.14330000
H       -3.34330000      -4.26950000       1.06970000
