14
Properties=species:S:1:pos:R:3 gdb_25040=T pbc="F F F"
O        0.30060000       0.39220000       0.85610000
C        0.12200000       1.46580000       0.37970000
O       -0.99210000       1.87030000      -0.29740000
C       -0.79300000       3.18590000      -0.68250000
C        0.40310000       3.58880000      -0.26090000
O        1.00110000       2.51580000       0.41470000
N        1.05460000       4.79680000      -0.39170000
C        1.91460000       5.25690000       0.71490000
C        2.52020000       4.79240000      -0.55890000
H       -1.57620000       3.67360000      -1.23260000
H        1.83510000       6.31760000       0.92960000
H        2.00930000       4.60640000       1.57860000
H        3.02170000       3.82980000      -0.55090000
H        2.88800000       5.50990000      -1.28500000
