16
Properties=species:S:1:pos:R:3 gdb_65879=T pbc="F F F"
O        0.30670000       1.53940000      -0.26810000
C       -0.00040000       0.21710000       0.06290000
C        0.51780000      -0.15000000       1.49000000
N       -0.46950000      -1.09390000       1.96920000
C       -1.68150000      -1.04770000       1.32520000
O       -2.67330000      -1.66520000       1.63460000
C       -1.52000000      -0.06910000       0.15960000
C        0.63430000      -0.71880000      -0.95300000
O        1.26540000      -0.30060000      -1.89250000
H        0.82180000       1.49520000      -1.09030000
H        1.52340000      -0.58580000       1.47390000
H        0.55720000       0.77570000       2.07780000
H       -0.38800000      -1.57970000       2.84900000
H       -2.03280000       0.86740000       0.39910000
H       -1.96990000      -0.47040000      -0.75130000
H        0.48470000      -1.80340000      -0.78190000
