19
Properties=species:S:1:pos:R:3 gdb_57938=T pbc="F F F"
C        0.73170000       0.68280000      -0.57960000
C       -0.29950000      -0.06800000       0.28150000
O       -0.06220000       0.17420000       1.64210000
C       -1.72850000       0.32930000      -0.07500000
O       -2.41930000       0.90190000       0.74320000
C       -2.27640000      -0.08030000      -1.43410000
C       -3.14040000      -1.34530000      -1.23480000
C       -4.56840000      -1.10140000      -0.80620000
O       -2.66380000      -2.44130000      -1.39450000
H        1.73180000       0.40000000      -0.24360000
H        0.64400000       0.43860000      -1.64200000
H        0.62110000       1.76360000      -0.45000000
H       -0.21590000      -1.14770000       0.06790000
H       -0.85990000       0.61710000       1.97140000
H       -2.88670000       0.74040000      -1.81950000
H       -1.47640000      -0.32820000      -2.13160000
H       -5.12210000      -0.63980000      -1.63270000
H       -5.04550000      -2.04200000      -0.52940000
H       -4.59100000      -0.39120000       0.02670000
