19
Properties=species:S:1:pos:R:3 gdb_82340=T pbc="F F F"
C        0.06220000       1.60110000      -0.07640000
C        0.11750000       0.07470000      -0.00230000
C        0.77740000      -0.60820000      -1.19380000
C        2.26100000      -0.66810000      -1.25810000
N        1.49100000      -1.82710000      -0.77610000
C        1.38940000      -1.90650000       0.68530000
C        0.87320000      -0.53020000       1.22830000
C        1.94820000       0.31530000       1.74240000
N        2.80160000       0.97440000       2.16190000
H        1.06460000       2.03510000      -0.12360000
H       -0.48710000       1.91610000      -0.96900000
H       -0.44780000       2.02390000       0.79460000
H       -0.90970000      -0.30640000       0.05710000
H        0.19600000      -0.67600000      -2.10950000
H        2.74620000      -0.82560000      -2.21660000
H        2.84730000      -0.08990000      -0.54940000
H        0.65120000      -2.67760000       0.92610000
H        2.34390000      -2.20040000       1.12870000
H        0.17830000      -0.68760000       2.05820000
