21
Properties=species:S:1:pos:R:3 gdb_98594=T pbc="F F F"
C       -0.00420000       1.19580000       0.21330000
N       -0.06040000      -0.22630000      -0.06290000
C       -1.25200000      -0.90960000      -0.01230000
O       -2.28920000      -0.43000000       0.40760000
N       -1.15450000      -2.19710000      -0.55860000
C       -0.35250000      -3.29950000      -0.01830000
C        0.45670000      -3.15580000       1.24970000
C       -1.85720000      -3.35410000      -0.03010000
C       -2.70580000      -3.29990000       1.22020000
H        0.92650000       1.44650000       0.73150000
H       -0.07370000       1.80470000      -0.69790000
H       -0.85140000       1.44230000       0.85370000
H        0.66270000      -0.62630000      -0.63840000
H        0.16030000      -3.86690000      -0.79570000
H       -0.07390000      -2.59950000       2.02450000
H        0.70310000      -4.14710000       1.64490000
H        1.39890000      -2.63230000       1.05660000
H       -2.30190000      -3.95930000      -0.82050000
H       -2.24540000      -2.72180000       2.02180000
H       -3.66840000      -2.83240000       1.00090000
H       -2.88690000      -4.31830000       1.58120000
