17
Properties=species:S:1:pos:R:3 gdb_35420=T pbc="F F F"
N        0.25130000      -1.04090000       0.91840000
C        0.14960000       0.04490000       0.53290000
C        0.02380000       1.41190000       0.02310000
C       -0.58590000       2.42890000       1.03640000
C        0.82470000       3.06920000       1.10250000
C        1.73820000       2.66900000       2.23060000
C        2.69900000       1.85890000       1.78980000
C        2.55430000       1.59070000       0.30620000
N        1.27540000       2.22890000      -0.05420000
H       -0.48860000       1.35710000      -0.94330000
H       -1.34790000       3.06610000       0.58640000
H       -0.96550000       1.99940000       1.96310000
H        0.85020000       4.14980000       0.91240000
H        1.62800000       3.04160000       3.24200000
H        3.50950000       1.45200000       2.38270000
H        3.37990000       2.03600000      -0.26660000
H        2.54090000       0.52180000       0.06430000
