21
Properties=species:S:1:pos:R:3 gdb_122917=T pbc="F F F"
C       -0.01360000       1.38140000       0.21680000
O        0.01330000      -0.02160000       0.09170000
C       -1.26980000      -0.59120000      -0.07410000
C       -1.10230000      -2.10180000      -0.09200000
N       -0.58270000      -2.54390000       1.19600000
C       -0.31820000      -3.97390000       1.30820000
C        0.88200000      -4.51280000       0.49810000
C       -0.14240000      -4.31180000       2.73340000
N        0.02410000      -4.58690000       3.84300000
H        1.01780000       1.71850000       0.34380000
H       -0.43660000       1.86070000      -0.67980000
H       -0.60390000       1.70140000       1.08920000
H       -1.93080000      -0.29900000       0.75710000
H       -1.72910000      -0.24880000      -1.01590000
H       -2.08240000      -2.56640000      -0.25870000
H       -0.46210000      -2.36700000      -0.95080000
H        0.24940000      -2.00680000       1.41890000
H       -1.22540000      -4.49490000       0.97350000
H        0.73690000      -4.31670000      -0.56700000
H        1.80780000      -4.02710000       0.82020000
H        0.99420000      -5.59170000       0.63760000
