18
Properties=species:S:1:pos:R:3 gdb_9328=T pbc="F F F"
C        0.05760000       1.51550000       0.02140000
C       -0.03210000      -0.01100000       0.08490000
C       -1.46260000      -0.51600000      -0.09320000
N       -1.51790000      -1.96720000      -0.04070000
C       -2.70520000      -2.63600000       0.05300000
N       -3.82930000      -2.05100000       0.22910000
C       -2.56540000      -4.14120000      -0.02940000
O       -3.50350000      -4.88820000       0.05550000
H        1.08960000       1.85480000       0.14700000
H       -0.30450000       1.89470000      -0.94010000
H       -0.54520000       1.97960000       0.80910000
H        0.60760000      -0.44720000      -0.69560000
H        0.35780000      -0.37240000       1.04410000
H       -2.11460000      -0.13470000       0.69910000
H       -1.88590000      -0.14530000      -1.03960000
H       -0.72930000      -2.47060000      -0.41630000
H       -4.55010000      -2.76960000       0.32030000
H       -1.52950000      -4.52650000      -0.17490000
