16
Properties=species:S:1:pos:R:3 gdb_46094=T pbc="F F F"
N        0.13550000       1.32190000       0.34070000
C        0.00850000       0.08150000       0.12340000
O        1.02900000      -0.76640000      -0.24630000
C        0.51740000      -2.09030000      -0.40230000
C       -0.95100000      -1.98360000      -0.08380000
C       -1.87500000      -3.17030000      -0.09720000
C       -1.81050000      -3.93390000      -1.34260000
C       -1.74050000      -4.55460000      -2.36870000
C       -1.22270000      -0.71150000       0.21350000
H        1.10480000       1.61210000       0.20310000
H        0.69760000      -2.43610000      -1.42770000
H        1.04920000      -2.76860000       0.27950000
H       -1.61780000      -3.83650000       0.73990000
H       -2.90210000      -2.83500000       0.08490000
H       -1.68990000      -5.10640000      -3.27480000
H       -2.17310000      -0.27510000       0.48400000
