23
Properties=species:S:1:pos:R:3 gdb_118124=T pbc="F F F"
C       -0.05810000       1.53290000      -0.32710000
C       -0.00330000       0.05310000       0.06020000
C       -1.37470000      -0.62840000       0.01790000
C       -1.34480000      -2.09180000       0.47150000
O       -0.87370000      -2.23910000       1.81020000
C       -2.71260000      -2.73390000       0.33530000
O       -3.19890000      -2.97190000      -0.98850000
C       -2.96290000      -4.10440000      -0.13640000
C       -1.90160000      -5.08740000      -0.55670000
H        0.93540000       1.99070000      -0.29170000
H       -0.44990000       1.66500000      -1.34180000
H       -0.70800000       2.09690000       0.35170000
H        0.68060000      -0.47870000      -0.61440000
H        0.41770000      -0.05730000       1.06570000
H       -2.08470000      -0.07680000       0.65470000
H       -1.78780000      -0.59430000      -0.99780000
H       -0.62250000      -2.63820000      -0.14280000
H       -1.42620000      -1.68910000       2.37740000
H       -3.45940000      -2.29620000       1.00710000
H       -3.88570000      -4.56980000       0.21760000
H       -1.00490000      -4.58770000      -0.92760000
H       -1.62150000      -5.72610000       0.28760000
H       -2.28270000      -5.73250000      -1.35530000
