14
Properties=species:S:1:pos:R:3 gdb_55249=T pbc="F F F"
N        0.49480000      -0.08490000       0.79740000
C       -0.17110000       0.29730000      -0.31490000
O        0.20100000       1.14400000      -1.10340000
C       -1.52200000      -0.40290000      -0.53870000
C       -1.66040000      -0.95880000      -1.96450000
O       -1.42360000      -2.36110000      -1.78740000
C       -1.51660000      -2.69180000      -0.48100000
O       -1.45930000      -3.79210000      -0.03900000
O       -1.68330000      -1.56460000       0.28110000
H        1.38630000       0.33670000       0.99960000
H        0.14150000      -0.82160000       1.38450000
H       -2.31250000       0.30950000      -0.29130000
H       -2.66350000      -0.81830000      -2.37650000
H       -0.91560000      -0.54060000      -2.64080000
