21
Properties=species:S:1:pos:R:3 gdb_93275=T pbc="F F F"
C       -0.53970000       1.37050000      -0.03620000
C        0.08260000      -0.02310000      -0.06110000
C        1.21830000      -0.17880000      -1.08340000
O        2.00010000      -1.29720000      -0.63520000
C        1.76460000      -1.54780000       0.68120000
O        2.31740000      -2.43070000       1.27180000
C        0.74820000      -0.53880000       1.23940000
C        1.55350000       0.54280000       1.99190000
C       -0.22020000      -1.23580000       2.19850000
H        0.20300000       2.14420000       0.18070000
H       -0.99240000       1.60800000      -1.00480000
H       -1.32890000       1.43840000       0.71900000
H       -0.69870000      -0.74680000      -0.32760000
H        0.86870000      -0.39800000      -2.09500000
H        1.86090000       0.71000000      -1.12290000
H        2.25010000       1.07590000       1.33700000
H        0.88160000       1.27880000       2.44280000
H        2.13730000       0.07780000       2.79090000
H        0.33360000      -1.71590000       3.00940000
H       -0.92050000      -0.51570000       2.63450000
H       -0.80040000      -2.00960000       1.68620000
