18
Properties=species:S:1:pos:R:3 gdb_19009=T pbc="F F F"
C       -0.04490000       1.50240000       0.02060000
C       -0.00790000       0.01340000      -0.03230000
C       -0.04870000      -0.83720000      -1.06370000
C        0.02850000      -2.21100000      -0.42030000
C       -0.83480000      -2.15340000       0.89550000
C        0.17780000      -3.07890000       1.60840000
C        1.04310000      -2.10240000       0.77920000
C        0.09220000      -0.91300000       1.17780000
H        0.85580000       1.90960000       0.49870000
H       -0.12140000       1.93720000      -0.98000000
H       -0.89690000       1.86210000       0.61230000
H       -0.12010000      -0.62320000      -2.12150000
H        0.01500000      -3.11310000      -1.03400000
H       -1.92680000      -2.17060000       0.95470000
H        0.24280000      -2.99190000       2.69690000
H        0.18720000      -4.12840000       1.29980000
H        2.13340000      -2.06030000       0.70320000
H        0.14320000      -0.49370000       2.18490000
