17
Properties=species:S:1:pos:R:3 gdb_109293=T pbc="F F F"
O        0.13230000       1.38700000       0.14130000
C        0.03470000      -0.00330000       0.09060000
C       -1.41040000      -0.45490000       0.02990000
N       -2.32490000       0.42630000      -0.02110000
C       -3.70570000      -0.04630000      -0.00920000
C       -3.89020000      -1.39290000      -0.72330000
C       -2.85370000      -2.41230000      -0.28780000
O       -3.00900000      -3.61000000      -0.26450000
N       -1.63470000      -1.82820000       0.04390000
H       -0.78660000       1.70290000       0.08870000
H        0.56230000      -0.40890000      -0.78960000
H        0.50670000      -0.46330000       0.97600000
H       -4.02850000      -0.13000000       1.03900000
H       -4.34240000       0.71400000      -0.46950000
H       -4.88320000      -1.81620000      -0.56140000
H       -3.76400000      -1.25960000      -1.80620000
H       -0.87080000      -2.46740000       0.21800000
