22
Properties=species:S:1:pos:R:3 gdb_76693=T pbc="F F F"
C       -0.27360000       1.02180000      -1.68680000
C       -0.02060000      -0.19650000      -0.82240000
C        1.36850000      -0.63020000      -0.39900000
C        2.62670000       0.11500000      -0.79550000
C        0.39070000      -0.11390000       0.63870000
C        0.58660000       1.19660000       1.37180000
C       -0.74840000       1.72410000       1.94510000
C       -0.58770000       2.96950000       2.69190000
N       -0.43890000       3.95490000       3.27730000
H        0.38300000       1.86160000      -1.44730000
H       -0.11960000       0.78340000      -2.74510000
H       -1.30650000       1.37210000      -1.57950000
H       -0.69890000      -1.01550000      -1.05000000
H        1.51600000      -1.70740000      -0.37150000
H        2.48640000       1.19690000      -0.84750000
H        3.43450000      -0.07570000      -0.08040000
H        2.97520000      -0.21480000      -1.78030000
H       -0.04170000      -0.88210000       1.27770000
H        1.29500000       1.06130000       2.19730000
H        1.01580000       1.96460000       0.72410000
H       -1.46610000       1.89140000       1.13450000
H       -1.19540000       0.97540000       2.60950000
