20
Properties=species:S:1:pos:R:3 gdb_23075=T pbc="F F F"
C       -0.47320000       1.30450000      -0.20590000
C       -0.01690000      -0.12820000      -0.01940000
C        1.38700000      -0.62310000      -0.29130000
C        2.52730000       0.38240000      -0.38240000
C        2.49520000       1.12520000       0.94190000
C        1.61830000       0.40710000       1.94760000
C        0.84090000      -0.61420000       1.12970000
N        3.12970000       2.21690000       1.09830000
O        2.96980000       2.71690000       2.40630000
H        0.28930000       2.03560000       0.07250000
H       -0.73850000       1.49110000      -1.25250000
H       -1.36230000       1.50970000       0.40080000
H       -0.77840000      -0.84950000      -0.30840000
H        1.49960000      -1.55340000      -0.83680000
H        3.48090000      -0.15080000      -0.48630000
H        2.45660000       1.07060000      -1.23030000
H        2.24490000      -0.09070000       2.69880000
H        0.99620000       1.12250000       2.49530000
H        0.55400000      -1.53740000       1.62070000
H        3.46630000       3.54090000       2.36800000
