18
Properties=species:S:1:pos:R:3 gdb_31158=T pbc="F F F"
C        0.15230000       1.41820000       0.09430000
O       -0.12430000       0.02810000      -0.07170000
C        0.54790000      -0.54770000      -1.12280000
C       -0.03350000      -0.99290000      -2.29000000
N       -1.35280000      -0.88690000      -2.76860000
N        0.94850000      -1.58480000      -3.03660000
C        2.16670000      -1.50110000      -2.36880000
C        1.94240000      -0.86930000      -1.16950000
N        2.85840000      -0.53350000      -0.15100000
H        1.22100000       1.59400000       0.26380000
H       -0.16230000       1.99180000      -0.78770000
H       -0.41690000       1.75130000       0.96610000
H       -1.88150000      -0.28910000      -2.14240000
H       -1.82280000      -1.78900000      -2.78450000
H        0.83750000      -1.81190000      -4.00860000
H        3.06460000      -1.91990000      -2.79150000
H        3.71780000      -1.06460000      -0.22110000
H        2.45540000      -0.69510000       0.76560000
