17
Properties=species:S:1:pos:R:3 gdb_36168=T pbc="F F F"
C        0.01400000      -1.26880000       0.01460000
C        0.04130000      -0.07000000      -0.05460000
C        0.08300000       1.38620000      -0.12640000
C        1.47730000       1.94890000      -0.01680000
O        2.43500000       1.69230000      -1.08800000
C        3.16120000       2.51540000      -0.12860000
C        1.94440000       3.42680000       0.21820000
C        2.12290000       3.19920000       1.73490000
C        2.53740000       1.84010000       1.13020000
H       -0.00970000      -2.32910000       0.06560000
H       -0.35420000       1.73110000      -1.07200000
H       -0.52600000       1.82000000       0.67760000
H        4.19560000       2.78090000      -0.34210000
H        1.61290000       4.30880000      -0.33020000
H        2.91300000       3.77600000       2.22280000
H        1.21540000       3.21000000       2.34500000
H        2.87290000       0.92310000       1.61280000
