23
Properties=species:S:1:pos:R:3 gdb_105878=T pbc="F F F"
C       -1.06910000       1.28110000      -0.36460000
C       -0.32230000      -0.04460000      -0.15530000
C        0.57950000      -0.40870000      -1.30410000
C        0.08500000      -1.14610000      -2.54990000
C        0.23900000      -0.75280000      -4.00440000
C        1.19230000      -1.73050000      -1.72860000
O        2.44920000      -1.13010000      -2.06030000
C        2.00040000       0.14030000      -1.49980000
C        2.32340000       1.35790000      -2.34430000
H       -0.37180000       2.11770000      -0.48010000
H       -1.69110000       1.24220000      -1.26480000
H       -1.71920000       1.50620000       0.48660000
H        0.26920000       0.00990000       0.76880000
H       -1.05140000      -0.84990000      -0.00160000
H       -0.86880000      -1.62140000      -2.31980000
H        1.29030000      -0.59940000      -4.25370000
H       -0.14110000      -1.55240000      -4.64970000
H       -0.31650000       0.15960000      -4.24650000
H        1.21120000      -2.71360000      -1.26970000
H        2.46910000       0.25480000      -0.51030000
H        3.40360000       1.41490000      -2.51560000
H        1.82030000       1.34340000      -3.31170000
H        2.02190000       2.26630000      -1.81130000
