15
Properties=species:S:1:pos:R:3 gdb_127514=T pbc="F F F"
C        0.05500000       1.35410000      -0.03350000
N        0.06370000      -0.08920000       0.03850000
N        0.14930000      -0.81630000      -1.09720000
C        0.13330000      -2.08220000      -0.69240000
O        0.20390000      -3.10360000      -1.56880000
C        0.03780000      -2.20110000       0.70260000
C       -0.00560000      -0.88390000       1.14790000
C       -0.10130000      -0.36730000       2.45730000
C       -0.18300000       0.06990000       3.57690000
H        0.97560000       1.71460000      -0.50110000
H       -0.79900000       1.69790000      -0.62400000
H       -0.01880000       1.75040000       0.97930000
H        0.26120000      -2.71630000      -2.45140000
H        0.00480000      -3.09440000       1.30140000
H       -0.25520000       0.44870000       4.56640000
