14
Properties=species:S:1:pos:R:3 gdb_15302=T pbc="F F F"
N       -0.20910000       1.16580000       0.00120000
C       -0.41590000      -0.03670000      -0.30140000
O       -0.98630000      -0.86290000       0.62000000
C       -1.00380000      -2.21900000       0.30820000
C       -2.13440000      -2.99660000       0.87570000
C       -2.07910000      -2.76840000      -0.63300000
C       -3.00890000      -1.87310000      -1.25650000
N       -3.74690000      -1.15350000      -1.78150000
H        0.19540000       1.66280000      -0.78940000
H       -0.19800000      -0.53380000      -1.25420000
H       -0.02340000      -2.68460000       0.23880000
H       -1.95680000      -4.00290000       1.23430000
H       -2.87580000      -2.42620000       1.42190000
H       -1.79100000      -3.61270000      -1.25050000
