14
Properties=species:S:1:pos:R:3 gdb_43894=T pbc="F F F"
N        0.03820000       1.08200000      -0.55070000
C       -0.02520000      -0.07590000      -0.08540000
O        0.97210000      -0.91800000       0.39880000
C        0.01920000      -2.00790000       0.63710000
C       -0.63490000      -1.88750000       2.02850000
O       -1.64340000      -0.98060000       1.52220000
C       -1.14010000      -1.07060000       0.17860000
C        0.42300000      -3.27080000       0.09650000
C        0.74210000      -4.34410000      -0.33960000
H        0.99300000       1.44560000      -0.54290000
H       -1.08420000      -2.81700000       2.39260000
H        0.00360000      -1.43830000       2.79490000
H       -1.90310000      -1.26260000      -0.57430000
H        1.02900000      -5.28950000      -0.73080000
