18
Properties=species:S:1:pos:R:3 gdb_20123=T pbc="F F F"
C       -0.10920000       1.71400000      -0.10780000
C       -0.11100000       0.18930000       0.05940000
C        0.38480000      -0.56450000      -1.16560000
C        0.32480000      -0.05850000      -2.54160000
O        1.55690000      -0.05770000      -1.81580000
C        0.73930000      -0.21980000       1.24900000
C        0.16750000      -0.43360000       2.58260000
O        0.53080000      -1.54130000       1.75490000
H        0.87120000       2.06200000      -0.44490000
H       -0.85560000       2.03690000      -0.83840000
H       -0.34220000       2.20410000       0.84190000
H       -1.13230000      -0.16140000       0.25990000
H        0.39620000      -1.64690000      -1.03100000
H        0.27120000      -0.76550000      -3.36850000
H       -0.09240000       0.92450000      -2.74950000
H        1.79020000       0.06700000       1.18090000
H        0.78240000      -0.29130000       3.47000000
H       -0.90300000      -0.29590000       2.73400000
