20
Properties=species:S:1:pos:R:3 gdb_102734=T pbc="F F F"
C        0.01330000       1.23140000      -0.22520000
O       -0.15120000      -0.14620000       0.04090000
C        0.60850000      -0.61470000       1.14350000
C        0.10590000      -2.02390000       1.48300000
N       -1.23510000      -1.96800000       2.04220000
C       -2.34300000      -2.06190000       1.09650000
C       -2.00570000      -3.20810000       1.98240000
C        2.04980000      -0.62170000       0.85540000
C        3.22700000      -0.63750000       0.61210000
H        1.05180000       1.47420000      -0.48850000
H       -0.63530000       1.47130000      -1.07070000
H       -0.28270000       1.84630000       0.63850000
H        0.42180000       0.02790000       2.01970000
H        0.17280000      -2.64190000       0.57100000
H        0.77620000      -2.45800000       2.23190000
H       -3.19880000      -1.42990000       1.31490000
H       -2.09980000      -2.14980000       0.04090000
H       -1.53910000      -4.07620000       1.51910000
H       -2.60700000      -3.43070000       2.85930000
H        4.26810000      -0.64680000       0.40200000
