19
Properties=species:S:1:pos:R:3 gdb_110603=T pbc="F F F"
C       -0.04680000       1.53980000      -0.00780000
C        0.14480000       0.06110000       0.01790000
O       -0.78110000      -0.75170000       0.76160000
C        0.63070000      -0.88380000       1.01940000
C        1.27580000      -1.78820000      -0.07360000
C        0.29100000      -2.25230000      -1.11680000
C       -1.11230000      -2.83830000      -0.92890000
O       -1.23940000      -4.07290000      -1.63130000
C        0.74570000      -0.81140000      -1.13120000
H        0.87210000       2.04320000      -0.32580000
H       -0.84110000       1.81550000      -0.71110000
H       -0.32300000       1.90520000       0.98470000
H        0.96500000      -0.75100000       2.04180000
H        2.27850000      -2.18610000       0.01990000
H        0.80130000      -2.79720000      -1.91120000
H       -1.35680000      -2.95780000       0.12950000
H       -1.86210000      -2.17240000      -1.36420000
H       -0.72620000      -4.73230000      -1.15430000
H        1.28460000      -0.38330000      -1.96750000
