13
Properties=species:S:1:pos:R:3 gdb_18413=T pbc="F F F"
N       -0.05680000       1.21370000      -0.01980000
C       -0.06410000      -0.03490000       0.03580000
O        0.99290000      -0.94770000       0.14970000
C        0.06890000      -2.03970000      -0.03750000
C       -0.91420000      -2.09650000       1.09500000
C       -0.60840000      -1.70270000       2.43910000
C       -0.36380000      -1.38420000       3.57160000
C       -1.10820000      -1.09980000      -0.07370000
H        0.89110000       1.58480000       0.06000000
H        0.37750000      -2.85890000      -0.67220000
H       -1.60680000      -2.93180000       1.00500000
H       -0.14110000      -1.09500000       4.56860000
H       -2.00870000      -1.07440000      -0.66860000
