17
Properties=species:S:1:pos:R:3 gdb_125302=T pbc="F F F"
C       -0.02140000       1.48850000       0.14840000
C       -0.00950000       0.01080000      -0.01720000
C       -0.02650000      -0.77990000      -1.10160000
C       -0.00110000      -2.24830000      -0.69860000
C        0.03310000      -2.14890000       0.80000000
C        0.06860000      -2.82630000       2.00080000
C        0.08020000      -1.79530000       2.97560000
N        0.05460000      -0.57130000       2.43720000
N        0.02640000      -0.82590000       1.12050000
H        0.86800000       1.82470000       0.69180000
H       -0.05140000       1.98160000      -0.82490000
H       -0.88910000       1.80550000       0.73640000
H       -0.05430000      -0.43530000      -2.12450000
H       -0.88290000      -2.79000000      -1.06340000
H        0.87410000      -2.77100000      -1.10480000
H        0.08400000      -3.89070000       2.16820000
H        0.10660000      -1.90130000       4.05060000
