18
Properties=species:S:1:pos:R:3 gdb_105950=T pbc="F F F"
O       -0.13120000       1.42170000       0.02440000
C        0.04640000       0.01990000       0.00270000
C       -1.28260000      -0.65790000      -0.13210000
C       -2.49510000      -0.32790000      -0.91560000
C       -2.99560000      -1.78400000      -0.98830000
C       -4.06740000      -1.91380000       0.12220000
C       -2.92060000      -1.47420000       1.04510000
C       -1.86050000      -2.08430000       0.07690000
N       -2.47700000      -0.09160000       0.57760000
H       -0.89510000       1.57790000       0.59760000
H        0.69900000      -0.21410000      -0.84670000
H        0.55240000      -0.34360000       0.91430000
H       -2.71710000       0.51850000      -1.55270000
H       -3.06650000      -2.27320000      -1.95730000
H       -4.96440000      -1.29070000       0.06900000
H       -4.33870000      -2.95900000       0.30030000
H       -2.93770000      -1.57350000       2.12910000
H       -1.34510000      -3.03510000       0.18140000
