14
Properties=species:S:1:pos:R:3 gdb_31317=T pbc="F F F"
O        0.02780000       1.34820000       0.51620000
C        0.01520000       0.09150000      -0.14290000
C       -1.36890000      -0.46580000      -0.04650000
C       -1.73190000      -1.78010000       0.09540000
O       -3.09410000      -1.90270000       0.10910000
C       -3.59160000      -0.65200000      -0.01620000
C       -2.59270000       0.26600000      -0.11700000
C       -0.95600000      -2.95030000       0.22220000
N       -0.28250000      -3.88830000       0.32470000
H        0.89200000       1.74740000       0.37770000
H        0.28760000       0.20180000      -1.20550000
H        0.73100000      -0.61590000       0.30110000
H       -4.66700000      -0.57900000      -0.01320000
H       -2.69320000       1.33450000      -0.21160000
