19
Properties=species:S:1:pos:R:3 gdb_54247=T pbc="F F F"
C       -0.14560000       1.27870000      -0.66650000
C       -0.08070000       0.05100000       0.21440000
O        0.91080000      -0.26540000       0.83050000
C       -1.34580000      -0.84360000       0.28360000
C       -1.64090000      -1.20940000       1.74330000
O       -2.47400000      -0.17180000      -0.29210000
C       -2.96050000      -0.87520000      -1.43410000
C       -2.04690000      -2.05880000      -1.57830000
C       -1.13670000      -2.04470000      -0.61260000
H        0.81540000       1.79370000      -0.64160000
H       -0.39170000       0.99340000      -1.69490000
H       -0.94810000       1.94150000      -0.33070000
H       -1.92770000      -0.31340000       2.30160000
H       -2.46290000      -1.92810000       1.79030000
H       -0.75050000      -1.63780000       2.20720000
H       -4.00980000      -1.16810000      -1.27510000
H       -2.94040000      -0.21590000      -2.31590000
H       -2.15340000      -2.79880000      -2.36140000
H       -0.33630000      -2.75190000      -0.44190000
