20
Properties=species:S:1:pos:R:3 gdb_59351=T pbc="F F F"
C        0.04620000       1.44390000       0.04730000
N        0.02220000      -0.01130000       0.11870000
C        0.85550000      -0.52280000       1.20110000
C       -1.30450000      -0.55720000       0.04500000
C       -1.54250000      -2.09420000      -0.18520000
C       -2.80880000      -2.04270000       0.73280000
O       -3.05150000      -3.05860000       1.65950000
C       -2.20070000      -0.75160000       1.29510000
O       -2.14880000      -0.37230000       2.43570000
H        1.08220000       1.78510000      -0.04480000
H       -0.49990000       1.77980000      -0.84030000
H       -0.39610000       1.93570000       0.93060000
H        0.50750000      -0.22500000       2.20260000
H        0.89840000      -1.61460000       1.16300000
H        1.87560000      -0.15050000       1.06510000
H       -1.86520000      -0.00280000      -0.71620000
H       -1.69490000      -2.40230000      -1.21900000
H       -0.76880000      -2.70770000       0.27880000
H       -3.70660000      -1.85200000       0.13000000
H       -2.85240000      -2.68920000       2.53050000
