16
Properties=species:S:1:pos:R:3 gdb_35918=T pbc="F F F"
N       -0.14020000      -1.14670000      -0.32720000
C       -0.05780000      -0.00800000      -0.15150000
C        0.00920000       1.44110000       0.05380000
C       -0.70850000       1.87790000       1.35700000
O        0.08540000       1.65870000       2.49650000
C        1.20390000       2.52100000       2.55000000
C        2.04220000       2.46950000       1.29230000
O        2.38660000       1.16940000       0.82200000
C        1.46320000       1.92950000       0.05110000
H       -0.51180000       1.91250000      -0.78880000
H       -0.96590000       2.94530000       1.26070000
H       -1.63030000       1.30940000       1.49640000
H        0.88610000       3.56500000       2.71680000
H        1.79630000       2.20300000       3.41310000
H        2.83780000       3.21260000       1.22830000
H        1.84540000       2.25930000      -0.91350000
