13
Properties=species:S:1:pos:R:3 gdb_25217=T pbc="F F F"
O       -0.07070000       0.01320000      -0.53030000
C       -0.01700000       1.11360000      -0.08240000
O       -1.23090000       1.72990000       0.21080000
C       -1.52250000       2.76760000       1.01550000
C       -0.72660000       3.51300000       1.80190000
C        0.70350000       3.46890000       1.91610000
C        1.59350000       2.77530000       1.17180000
C        1.33650000       1.85160000       0.07350000
O        2.20100000       1.52890000      -0.71330000
H       -2.59230000       2.94460000       0.98820000
H       -1.24420000       4.25450000       2.40010000
H        1.11910000       4.13160000       2.67090000
H        2.65450000       2.92340000       1.34680000
