20
Properties=species:S:1:pos:R:3 gdb_115979=T pbc="F F F"
C        0.83900000      -0.33850000       1.29910000
C        0.00030000      -0.00190000       0.06290000
C        0.69570000      -0.36510000      -1.25650000
C        0.91370000      -1.88690000      -1.47720000
C        0.72090000      -2.13640000      -2.99350000
C       -0.07200000      -0.93930000      -3.44090000
C       -0.08650000       0.02300000      -2.50920000
C       -0.70260000       1.29590000      -2.65570000
N       -1.19290000       2.34290000      -2.73700000
H        1.04820000      -1.41130000       1.36670000
H        1.80050000       0.18660000       1.27800000
H        0.31970000      -0.04470000       2.21600000
H       -0.96390000      -0.52480000       0.11110000
H       -0.23130000       1.06970000       0.05950000
H        1.66190000       0.16150000      -1.28300000
H        1.88550000      -2.22820000      -1.11470000
H        0.14680000      -2.43680000      -0.92000000
H        1.67920000      -2.17110000      -3.53140000
H        0.21630000      -3.08390000      -3.21100000
H       -0.53470000      -0.85760000      -4.41750000
