15
Properties=species:S:1:pos:R:3 gdb_81718=T pbc="F F F"
C       -0.04570000       1.62100000      -0.07290000
C        0.04680000       0.10340000      -0.02150000
C        0.70730000      -0.66240000      -1.18530000
N        2.09850000      -0.23070000      -1.22500000
C        1.70610000      -1.33450000      -0.26770000
C        2.29740000      -2.62510000      -0.33030000
N        2.77210000      -3.68050000      -0.36000000
C        1.08910000      -0.57710000       0.91590000
O        1.25580000      -0.60600000       2.09320000
H        0.90530000       2.05290000      -0.39190000
H       -0.82780000       1.94330000      -0.76730000
H       -0.29060000       2.01530000       0.91760000
H       -0.92210000      -0.34900000       0.22590000
H        0.21930000      -1.11700000      -2.03760000
H        2.56770000      -0.68470000      -2.00990000
