20
Properties=species:S:1:pos:R:3 gdb_115532=T pbc="F F F"
C        0.03920000       1.55850000      -0.13440000
C        0.04920000       0.04120000       0.08200000
C       -1.34890000      -0.55680000       0.02670000
C       -2.14360000      -0.59090000      -1.31090000
C       -2.67580000      -1.99440000      -0.92030000
C       -1.50260000      -2.11270000       0.10190000
O       -0.34940000      -2.71900000      -0.44870000
C       -1.81900000      -2.69390000       1.41320000
N       -2.08280000      -3.16260000       2.43690000
H        1.05360000       1.96620000      -0.09480000
H       -0.38540000       1.82020000      -1.10970000
H       -0.55490000       2.06720000       0.63300000
H        0.67720000      -0.44330000      -0.67200000
H        0.50020000      -0.19090000       1.05480000
H       -1.97720000      -0.11820000       0.80950000
H       -2.88430000       0.19320000      -1.47350000
H       -1.47500000      -0.63500000      -2.17420000
H       -3.64630000      -1.95320000      -0.42090000
H       -2.69600000      -2.77170000      -1.68760000
H       -0.52260000      -3.66150000      -0.55320000
