21
Properties=species:S:1:pos:R:3 gdb_83047=T pbc="F F F"
C        0.33100000       1.57190000      -0.06850000
C        0.01880000       0.06380000      -0.01320000
C        0.36040000      -0.62810000      -1.31050000
C        0.89140000      -1.84920000      -1.41020000
C        1.24480000      -2.71920000      -0.23340000
C        1.26950000      -1.98820000       1.09790000
C        2.16440000      -0.78410000       1.27040000
O        3.04460000      -0.34680000       0.27480000
C        0.66760000      -0.58950000       1.20030000
H        1.40710000       1.73920000      -0.16580000
H       -0.17470000       2.04890000      -0.91520000
H       -0.00630000       2.06860000       0.84690000
H       -1.07150000      -0.03540000       0.10980000
H        0.11270000      -0.08010000      -2.21780000
H        1.06660000      -2.27620000      -2.39510000
H        0.51830000      -3.54260000      -0.17920000
H        2.21550000      -3.20170000      -0.41430000
H        1.15940000      -2.63600000       1.96300000
H        2.63530000      -0.64950000       2.23900000
H        2.62640000      -0.48510000      -0.58410000
H        0.18120000      -0.33690000       2.13920000
