19
Properties=species:S:1:pos:R:3 gdb_61493=T pbc="F F F"
C       -1.44340000      -0.11510000       0.10790000
C        0.06160000       0.13430000      -0.00540000
C        0.85120000      -0.47000000       1.18080000
C        2.24060000       0.16860000       1.40110000
O        2.15210000       1.58310000       1.56120000
C        2.92600000      -0.46140000       2.53200000
C        3.44840000      -0.96420000       3.49080000
C        0.61130000      -0.37040000      -1.32580000
O       -0.05230000      -0.85010000      -2.20990000
H       -1.84360000       0.35050000       1.01330000
H       -1.97090000       0.29120000      -0.75770000
H       -1.66130000      -1.18690000       0.14790000
H        0.26330000       1.21590000       0.01080000
H        0.26800000      -0.32700000       2.09810000
H        0.97130000      -1.55320000       1.05930000
H        2.85260000       0.03410000       0.50140000
H        1.81880000       1.75450000       2.44930000
H        3.93010000      -1.40960000       4.32630000
H        1.71500000      -0.27030000      -1.44570000
