22
Properties=species:S:1:pos:R:3 gdb_76924=T pbc="F F F"
C        0.75670000       1.13590000       0.70610000
N        0.58750000      -0.21220000       0.17470000
C        0.47470000      -0.51040000      -1.24940000
C        0.50350000       0.46120000      -2.39370000
C       -0.28420000       1.70310000      -2.43810000
O        1.13750000       1.73570000      -2.27470000
C        1.68820000      -0.93720000      -0.47060000
C        3.02850000      -0.26610000      -0.72060000
C        1.80360000      -2.38810000      -0.03800000
H        1.34710000       1.81940000       0.08860000
H       -0.23490000       1.57730000       0.85550000
H        1.22460000       1.05410000       1.69280000
H       -0.26680000      -1.28630000      -1.46050000
H        0.69290000      -0.02990000      -3.35180000
H       -0.64880000       2.08130000      -3.39170000
H       -0.85850000       2.00300000      -1.56410000
H        2.93260000       0.74920000      -1.10270000
H        3.61670000      -0.23750000       0.20440000
H        3.60360000      -0.84640000      -1.45040000
H        2.29080000      -2.99290000      -0.81150000
H        2.40330000      -2.47120000       0.87610000
H        0.81650000      -2.80870000       0.16810000
