20
Properties=species:S:1:pos:R:3 gdb_91030=T pbc="F F F"
C       -0.04230000       1.47060000       0.01000000
C       -0.04120000      -0.04130000      -0.03740000
C       -1.25890000      -0.70090000       0.63300000
C       -1.16350000      -2.19990000       0.67920000
C       -0.26750000      -1.38900000       1.57510000
N        0.89570000      -0.74990000       0.91650000
C        1.52650000      -1.50010000      -0.22080000
C        0.65860000      -0.71710000      -1.25580000
O       -0.20420000      -1.43880000      -2.10570000
H        0.94970000       1.87160000      -0.22020000
H       -0.75720000       1.87410000      -0.71730000
H       -0.32890000       1.82450000       1.00520000
H       -2.17350000      -0.16740000       0.86240000
H       -1.98470000      -2.67500000       1.20860000
H       -0.80280000      -2.76070000      -0.17350000
H       -0.27980000      -1.49910000       2.65410000
H        2.60330000      -1.31490000      -0.27930000
H        1.35080000      -2.57980000      -0.21510000
H        1.24890000       0.00870000      -1.83170000
H        0.31030000      -1.76320000      -2.85150000
