19
Properties=species:S:1:pos:R:3 gdb_117576=T pbc="F F F"
C       -0.08980000       1.38160000       0.18780000
O       -0.03460000      -0.01740000       0.01310000
C       -1.29690000      -0.62800000       0.05070000
C       -1.09260000      -2.14930000      -0.06090000
C       -0.34460000      -2.65010000       1.09570000
N        0.19790000      -3.06910000       2.02630000
C       -2.42800000      -2.87380000      -0.22550000
C       -2.61870000      -4.29040000       0.16220000
N       -3.27760000      -3.21100000       0.92220000
H        0.93640000       1.75240000       0.14860000
H       -0.67660000       1.86740000      -0.60710000
H       -0.53130000       1.65120000       1.15900000
H       -1.83320000      -0.38620000       0.98200000
H       -1.92690000      -0.29540000      -0.79090000
H       -0.48090000      -2.32590000      -0.95520000
H       -2.98760000      -2.49740000      -1.07990000
H       -3.28770000      -4.91940000      -0.41740000
H       -1.78500000      -4.80970000       0.62610000
H       -2.76920000      -3.05970000       1.79220000
