14
Properties=species:S:1:pos:R:3 gdb_1406=T pbc="F F F"
C       -0.11380000       1.66330000       0.21120000
C        0.01080000       0.16500000      -0.11640000
C        0.75270000      -0.64020000       0.96840000
C        2.13710000      -0.20660000       1.13040000
N        3.22990000       0.15260000       1.24230000
C       -1.36290000      -0.43060000      -0.36440000
O       -1.80600000      -1.39500000       0.20370000
H        0.87590000       2.11660000       0.30440000
H       -0.65630000       2.19240000      -0.57810000
H       -0.65060000       1.81530000       1.15340000
H        0.55660000       0.07370000      -1.06730000
H        0.23110000      -0.54090000       1.92660000
H        0.73240000      -1.70570000       0.72120000
H       -1.95870000       0.10990000      -1.13430000
