21
Properties=species:S:1:pos:R:3 gdb_86305=T pbc="F F F"
C       -0.78580000       1.30640000      -0.21900000
C        0.05480000       0.04010000      -0.21410000
C        1.50140000       0.06570000      -0.78330000
C        1.89780000      -0.95440000       0.31460000
O        3.17140000      -0.91510000       0.90660000
C        0.63770000      -0.52040000       1.11060000
C        0.81040000       0.34090000       2.38100000
C        0.01770000      -0.78510000       3.07110000
O       -0.11270000      -1.51030000       1.83090000
H       -0.24570000       2.15170000       0.22200000
H       -1.06040000       1.59090000      -1.24040000
H       -1.71400000       1.16730000       0.34620000
H       -0.50480000      -0.77920000      -0.68040000
H        1.65870000      -0.21380000      -1.82650000
H        1.97720000       1.03830000      -0.60490000
H        1.75320000      -1.98330000      -0.02980000
H        3.40150000       0.00720000       1.05940000
H        1.84350000       0.44770000       2.71760000
H        0.32620000       1.31820000       2.36740000
H        0.56920000      -1.35890000       3.82470000
H       -0.95830000      -0.50070000       3.48190000
