12
Properties=species:S:1:pos:R:3 gdb_856=T pbc="F F F"
N        0.02170000       1.31890000       0.14830000
C       -0.04320000      -0.04920000       0.06230000
N       -1.11140000      -0.79000000       0.08430000
C       -0.61130000      -2.08920000       0.05060000
N       -1.49640000      -3.15800000       0.13180000
C        0.74300000      -2.05920000      -0.00330000
O        1.12020000      -0.71050000       0.00790000
H        0.82900000       1.73130000      -0.29550000
H       -0.84780000       1.77090000      -0.09170000
H       -2.41410000      -2.90290000      -0.20760000
H       -1.16590000      -4.00270000      -0.31300000
H        1.53820000      -2.77960000      -0.04100000
