20
Properties=species:S:1:pos:R:3 gdb_56652=T pbc="F F F"
C        0.00490000       1.43300000      -0.31530000
C        0.17970000      -0.03440000      -0.00340000
N        1.56100000      -0.55840000       0.08660000
C        0.70970000      -0.56790000       1.28350000
C        1.13030000       0.33120000       2.42630000
C        0.16310000      -1.92670000       1.75210000
O       -0.23660000      -2.68420000       0.60980000
C        1.14940000      -2.67560000       2.53950000
C        1.93580000      -3.33520000       3.16570000
H        0.78190000       2.04400000       0.14820000
H        0.05980000       1.59540000      -1.39730000
H       -0.97220000       1.79280000       0.02630000
H       -0.53510000      -0.68310000      -0.50280000
H        1.57860000      -1.49680000      -0.30860000
H        1.54470000       1.26700000       2.05060000
H        0.27940000       0.56580000       3.07650000
H        1.89890000      -0.15420000       3.03550000
H       -0.71230000      -1.73130000       2.39330000
H       -0.23190000      -3.61350000       0.85820000
H        2.63810000      -3.90520000       3.72300000
