14
Properties=species:S:1:pos:R:3 gdb_35457=T pbc="F F F"
N       -0.03630000      -1.23500000       0.04460000
C       -0.00800000      -0.08010000       0.00720000
C        0.03580000       1.37430000       0.00800000
C       -0.17320000       2.13470000       1.35740000
N        1.14530000       2.84800000       1.23820000
C        2.17030000       1.80030000       1.22960000
C        1.42490000       2.04110000      -0.03000000
C        2.00910000       2.59520000      -1.21240000
N        2.46400000       3.02050000      -2.18700000
H       -0.61750000       1.76480000      -0.77370000
H       -0.99630000       2.84710000       1.31670000
H       -0.25710000       1.51600000       2.25360000
H        3.18030000       2.19250000       1.27720000
H        2.00230000       0.87160000       1.77070000
