16
Properties=species:S:1:pos:R:3 gdb_32498=T pbc="F F F"
C        0.01960000       1.52390000      -0.21290000
C       -0.03030000       0.01120000       0.06390000
C       -1.42070000      -0.54910000       0.04900000
C       -2.15100000      -1.01290000       1.09400000
O       -3.38760000      -1.43250000       0.69010000
C       -3.45930000      -1.23750000      -0.63750000
C       -2.29130000      -0.69890000      -1.10050000
C       -1.99510000      -0.36430000      -2.44440000
N       -1.73070000      -0.08300000      -3.53660000
H        1.05260000       1.88300000      -0.18700000
H       -0.39300000       1.75850000      -1.19820000
H       -0.55480000       2.07750000       0.53600000
H        0.57680000      -0.51140000      -0.68500000
H        0.42600000      -0.20230000       1.03650000
H       -1.94510000      -1.11400000       2.14660000
H       -4.37750000      -1.52150000      -1.12400000
