15
Properties=species:S:1:pos:R:3 gdb_48472=T pbc="F F F"
O       -0.69550000       0.82430000      -0.73100000
C        0.05650000       1.11710000       0.15290000
C        1.34310000       1.96210000      -0.00770000
N        1.48360000       2.84390000       1.15710000
C        2.84960000       2.75300000       1.70080000
C        3.37800000       1.50110000       1.06150000
C        2.56270000       1.05590000       0.11230000
C        1.33990000       2.67850000      -1.29780000
N        1.35690000       3.28880000      -2.27900000
H       -0.07740000       0.80320000       1.20960000
H        1.18030000       3.78910000       0.96730000
H        3.48290000       3.61840000       1.44750000
H        2.82410000       2.68520000       2.79640000
H        4.32390000       1.05450000       1.34100000
H        2.69550000       0.19860000      -0.53300000
