15
Properties=species:S:1:pos:R:3 gdb_46648=T pbc="F F F"
O        0.06770000       0.02810000       0.20370000
C       -0.03870000       1.20560000      -0.00750000
C       -1.31200000       1.97300000      -0.38240000
C       -0.81020000       3.32370000      -0.92770000
N        0.64730000       3.46280000      -0.61590000
C        0.97190000       3.42940000       0.81520000
C       -0.03760000       3.56210000       1.83630000
N       -0.84470000       3.71640000       2.65060000
C        1.10260000       2.19410000      -0.03690000
H       -1.87510000       1.39590000      -1.11880000
H       -1.94060000       2.06960000       0.50760000
H       -0.88660000       3.36390000      -2.01650000
H       -1.34640000       4.18340000      -0.52030000
H        1.89480000       3.94750000       1.06250000
H        2.09610000       1.82890000      -0.27470000
