16
Properties=species:S:1:pos:R:3 gdb_79660=T pbc="F F F"
C       -0.24480000       1.53520000      -0.04060000
N        0.18290000       0.13750000       0.06360000
C        1.40300000      -0.49650000      -0.29750000
C        2.71610000       0.18710000       0.22970000
N        2.34420000       1.44580000       0.91990000
C        2.21160000       0.15000000       1.61210000
C        0.86730000      -0.53020000       1.12990000
C        0.24810000      -1.59100000       1.86270000
N       -0.21890000      -2.44500000       2.48880000
H        0.40040000       2.09330000      -0.72050000
H       -1.27140000       1.54810000      -0.42340000
H       -0.21800000       2.03120000       0.93030000
H        1.40620000      -1.29960000      -1.02710000
H        3.71180000       0.00520000      -0.15000000
H        3.20580000       1.87960000       1.25030000
H        2.71670000      -0.08080000       2.53970000
