14
Properties=species:S:1:pos:R:3 gdb_128077=T pbc="F F F"
C        0.02460000       1.44230000       0.04910000
N       -0.08030000      -0.00300000       0.10130000
C       -1.25060000      -0.65660000      -0.09240000
O       -2.32610000      -0.13180000      -0.32630000
C       -1.15320000      -2.14490000       0.00030000
N       -0.05380000      -2.80730000       0.24520000
O       -0.39960000      -4.12230000       0.24380000
N       -1.73950000      -4.28400000      -0.00650000
C       -2.21330000      -3.08050000      -0.15770000
H        0.71170000       1.75910000      -0.74270000
H       -0.96920000       1.83850000      -0.16080000
H        0.37770000       1.84600000       1.00390000
H        0.74140000      -0.55770000       0.28680000
H       -3.25360000      -2.89320000      -0.36770000
