17
Properties=species:S:1:pos:R:3 gdb_43179=T pbc="F F F"
O        0.01170000       0.05490000       0.02410000
C       -0.02520000       1.25360000       0.02690000
C       -1.21830000       2.20460000       0.04860000
C       -0.70520000       3.22350000       1.07480000
O        0.73950000       3.23850000       0.92850000
C        1.13010000       2.26000000      -0.00300000
O        1.20930000       2.76030000      -1.32920000
C        0.05890000       3.52080000      -1.70610000
C       -1.26460000       2.80620000      -1.38340000
H       -2.15460000       1.72160000       0.32820000
H       -1.07930000       4.23940000       0.90910000
H       -0.95370000       2.92070000       2.09810000
H        2.11500000       1.86930000       0.25120000
H        0.09120000       4.49770000      -1.20710000
H        0.15800000       3.69100000      -2.78060000
H       -1.44470000       1.99880000      -2.10080000
H       -2.09450000       3.51710000      -1.47110000
