14
Properties=species:S:1:pos:R:3 gdb_33556=T pbc="F F F"
C        0.11070000      -1.13220000       0.07230000
C        0.04770000       0.06460000       0.00200000
C       -0.04120000       1.52820000      -0.03680000
C       -0.61880000       2.10730000       1.31420000
O        0.44740000       2.92760000       1.82990000
C        1.45250000       2.83360000       0.93450000
N        1.33150000       2.12290000      -0.10800000
C       -0.83660000       1.96320000      -1.18990000
C       -1.50800000       2.34330000      -2.10960000
H        0.17260000      -2.19170000       0.11650000
H       -1.49690000       2.73300000       1.15030000
H       -0.83930000       1.32080000       2.03680000
H        2.33620000       3.40700000       1.19220000
H       -2.09150000       2.66950000      -2.93520000
