17
Properties=species:S:1:pos:R:3 gdb_71381=T pbc="F F F"
C       -0.06510000       1.42140000      -0.07940000
C        0.03420000      -0.06550000      -0.02350000
O       -0.53230000      -0.82570000      -1.10680000
C       -0.42360000      -1.99340000      -0.24940000
C       -0.27400000      -1.08140000       1.01540000
C        1.22300000      -0.85700000       0.54280000
C        2.39810000      -0.30320000       1.28570000
C        1.10500000      -2.19720000      -0.11980000
O        1.84730000      -3.13210000      -0.23130000
H        0.50500000       1.80960000      -0.92940000
H       -1.10930000       1.72580000      -0.19450000
H        0.32960000       1.87250000       0.83460000
H       -1.13930000      -2.78550000      -0.44970000
H       -0.67100000      -1.09190000       2.02000000
H        2.88410000      -1.08920000       1.87240000
H        3.14210000       0.10310000       0.59240000
H        2.10680000       0.50050000       1.96880000
