17
Properties=species:S:1:pos:R:3 gdb_133866=T pbc="F F F"
C       -1.04150000       1.25720000      -0.66120000
C       -1.27190000      -0.06060000       0.27560000
O       -1.42090000      -1.27560000      -0.48950000
C       -0.13520000      -1.72260000       0.01720000
C        1.12170000      -1.19290000      -0.72910000
C        1.26690000      -0.05900000       0.34130000
O        1.29650000       1.32910000      -0.08960000
C        0.16240000       1.95190000      -0.27440000
C       -0.03740000      -0.52260000       0.96770000
H       -1.90130000       1.92980000      -0.66880000
H       -0.96710000       0.78450000      -1.64570000
H       -2.18070000       0.16020000       0.84380000
H       -0.16130000      -2.77980000       0.28920000
H        0.91590000      -0.82890000      -1.73620000
H        1.97660000      -1.87380000      -0.76540000
H        2.17360000      -0.11640000       0.94340000
H        0.21450000       3.01940000      -0.08470000
