18
Properties=species:S:1:pos:R:3 gdb_117052=T pbc="F F F"
C        0.40200000       1.33880000       0.15110000
C       -0.36550000       0.06810000      -0.21900000
N        0.17990000      -0.59170000      -1.39210000
C        0.74510000      -1.81550000      -1.36990000
O        0.86260000      -2.54640000      -0.39840000
C        1.26200000      -2.24350000      -2.76060000
O        1.15440000      -1.51980000      -3.72050000
C        1.89560000      -3.61670000      -2.78920000
O        2.32940000      -3.90250000      -4.09220000
H        1.44690000       1.10950000       0.37880000
H        0.38310000       2.06750000      -0.66640000
H       -0.04810000       1.80990000       1.03020000
H       -0.31960000      -0.66390000       0.59080000
H       -1.42240000       0.30310000      -0.39600000
H        0.18280000      -0.12910000      -2.29140000
H        2.70740000      -3.61600000      -2.04340000
H        1.14560000      -4.32880000      -2.40720000
H        2.73150000      -4.77570000      -4.08420000
