21
Properties=species:S:1:pos:R:3 gdb_64927=T pbc="F F F"
C        0.11140000       1.35990000      -0.45120000
C        0.03270000      -0.08240000       0.02910000
C        1.33690000      -0.84790000       0.21040000
C        0.56590000      -0.40160000       1.41960000
C       -1.11500000      -0.82280000      -0.42770000
C       -2.08570000      -1.41910000      -0.82780000
C       -3.23960000      -2.13350000      -1.29150000
C       -3.61270000      -2.11240000      -2.76630000
C       -3.07830000      -3.37420000      -2.15750000
H        1.01020000       1.84920000      -0.06270000
H        0.14360000       1.40640000      -1.54440000
H       -0.76010000       1.93080000      -0.11550000
H        1.33670000      -1.90280000      -0.03600000
H        2.25400000      -0.32450000      -0.03910000
H        0.95200000       0.42970000       2.00010000
H        0.03990000      -1.15190000       1.99750000
H       -4.07810000      -2.15440000      -0.60050000
H       -4.66770000      -2.05950000      -3.01080000
H       -2.96440000      -1.55110000      -3.42830000
H       -2.06640000      -3.67110000      -2.40560000
H       -3.76300000      -4.19620000      -1.98040000
