22
Properties=species:S:1:pos:R:3 gdb_120891=T pbc="F F F"
C        0.00670000       1.60000000       0.05060000
C       -0.01790000       0.06990000       0.01680000
C       -1.43550000      -0.49480000      -0.08640000
N       -1.44510000      -1.94360000      -0.10300000
C       -0.96210000      -2.63920000      -1.32110000
C       -2.16460000      -3.57610000      -1.20710000
C       -2.77980000      -4.49870000      -2.15430000
O       -2.04640000      -4.97110000      -1.01230000
C       -2.75710000      -2.62880000      -0.16380000
H        1.03070000       1.97870000       0.11900000
H       -0.44580000       2.02610000      -0.85180000
H       -0.54880000       1.98690000       0.91220000
H        0.57520000      -0.28790000      -0.83480000
H        0.45560000      -0.34060000       0.91590000
H       -2.02330000      -0.16610000       0.78060000
H       -1.93540000      -0.07190000      -0.98400000
H       -0.98970000      -2.01560000      -2.23020000
H        0.02570000      -3.10220000      -1.23060000
H       -3.85500000      -4.67290000      -2.12330000
H       -2.30880000      -4.68090000      -3.11980000
H       -3.08360000      -3.08150000       0.77860000
H       -3.56950000      -2.00250000      -0.56770000
