21
Properties=species:S:1:pos:R:3 gdb_83935=T pbc="F F F"
C       -0.15560000       1.58720000      -0.00180000
C        0.06020000       0.07970000       0.01270000
C        1.07440000      -0.60460000      -0.97120000
C        2.39870000       0.18890000      -1.02870000
C        3.09890000       0.18970000       0.35270000
C        2.11130000       0.17250000       1.54560000
C        0.83340000      -0.61840000       1.18750000
C        1.18900000      -1.67750000       0.12760000
O        1.33040000      -2.86640000       0.13580000
H        0.77030000       2.15750000       0.10520000
H       -0.62600000       1.89750000      -0.94110000
H       -0.82190000       1.88630000       0.81460000
H       -0.91120000      -0.41470000      -0.09890000
H        0.72300000      -0.90780000      -1.95940000
H        3.06530000      -0.26110000      -1.77120000
H        2.19140000       1.20700000      -1.37550000
H        3.70890000      -0.71890000       0.41500000
H        3.79390000       1.03110000       0.43570000
H        2.59830000      -0.28770000       2.41110000
H        1.83110000       1.18650000       1.85080000
H        0.27310000      -0.93350000       2.06990000
