21
Properties=species:S:1:pos:R:3 gdb_78033=T pbc="F F F"
C       -0.00100000       1.57300000      -0.06060000
C        0.01810000       0.04430000       0.04170000
C        0.71770000      -0.64260000      -1.15730000
O        1.50420000      -1.73510000      -0.65600000
C        1.57190000      -1.69110000       0.75710000
C        1.65840000      -3.05490000       1.37920000
C        2.28550000      -0.46950000       1.27860000
O        3.01230000       0.33260000       0.39400000
C        0.76080000      -0.51930000       1.24510000
H        1.01880000       1.96450000      -0.08560000
H       -0.52450000       1.90100000      -0.96570000
H       -0.51810000       2.01500000       0.79700000
H       -1.01560000      -0.31800000       0.10370000
H        0.00800000      -1.04680000      -1.88740000
H        1.37170000       0.06940000      -1.67410000
H        2.52550000      -3.60280000       0.99520000
H        1.76070000      -2.97430000       2.46490000
H        0.76100000      -3.64180000       1.15770000
H        2.73620000      -0.53230000       2.26790000
H        3.27770000      -0.23780000      -0.33820000
H        0.24150000      -0.55500000       2.19720000
