15
Properties=species:S:1:pos:R:3 gdb_69130=T pbc="F F F"
C        0.02160000       1.49820000      -0.04570000
C        0.04190000       0.00270000       0.05590000
C       -0.84870000      -0.80980000       0.92470000
C        0.67570000      -0.79830000       1.17160000
C        1.44900000      -1.86640000       0.49620000
O        2.23170000      -2.65650000       0.94580000
C        1.12810000      -1.73290000      -1.02160000
O        1.48920000      -2.43650000      -1.91270000
O        0.34510000      -0.63150000      -1.19290000
H        0.99220000       1.87720000      -0.37780000
H       -0.73920000       1.82110000      -0.76270000
H       -0.21180000       1.93900000       0.92700000
H       -1.43530000      -0.30300000       1.68230000
H       -1.30360000      -1.70300000       0.51020000
H        1.05440000      -0.35920000       2.08490000
