19
Properties=species:S:1:pos:R:3 gdb_79776=T pbc="F F F"
O        0.23650000       1.39180000      -0.25150000
C       -0.00930000       0.03290000       0.00970000
C        0.23040000      -0.63250000       1.38200000
C       -0.75140000      -0.14120000       2.52150000
C       -1.77330000       0.93120000       2.06570000
C       -2.38600000      -0.14620000       1.14360000
C       -1.41610000      -0.62240000      -0.00770000
C       -0.82870000      -1.71840000       0.96070000
C       -1.78010000      -1.24830000       2.08580000
H       -0.06210000       1.90950000       0.49900000
H        0.59500000      -0.51240000      -0.72570000
H        1.24940000      -0.85830000       1.69770000
H       -0.31680000      -0.07620000       3.51910000
H       -2.46310000       1.13840000       2.89140000
H       -1.45780000       1.89590000       1.65620000
H       -3.44130000      -0.08890000       0.87650000
H       -1.88560000      -0.84160000      -0.96670000
H       -0.58630000      -2.73830000       0.67040000
H       -2.35480000      -1.86770000       2.77230000
