13
Properties=species:S:1:pos:R:3 gdb_9139=T pbc="F F F"
O        0.43760000       0.74020000      -0.85850000
C        0.02650000       0.09430000       0.33350000
C       -1.35490000      -0.38990000       0.29160000
C       -2.50470000      -0.74410000       0.24230000
C       -3.88650000      -1.22570000       0.17140000
O       -4.04210000      -2.40240000      -0.59820000
C       -4.43320000      -1.40240000       1.54120000
N       -4.86510000      -1.56170000       2.60030000
H       -0.16980000       1.46900000      -1.02410000
H        0.70930000      -0.75150000       0.46850000
H        0.14790000       0.74300000       1.21530000
H       -4.50940000      -0.47450000      -0.33000000
H       -3.42530000      -3.06260000      -0.25970000
