17
Properties=species:S:1:pos:R:3 gdb_7097=T pbc="F F F"
C        0.07960000       1.54730000       0.19870000
C       -0.00450000       0.04580000      -0.00020000
O        0.65970000      -0.57550000       1.11320000
C        0.69310000      -1.92080000       1.11960000
N        0.17300000      -2.62030000       0.20310000
C        1.43550000      -2.38150000       2.37240000
C        1.54000000      -3.82610000       2.49670000
C        1.61720000      -5.02200000       2.58370000
H        1.12110000       1.87950000       0.23530000
H       -0.41650000       2.05980000      -0.63090000
H       -0.40920000       1.84670000       1.13020000
H       -1.03990000      -0.30810000      -0.03890000
H        0.48040000      -0.27560000      -0.92780000
H        0.30890000      -3.61110000       0.39810000
H        2.43160000      -1.92200000       2.36290000
H        0.92380000      -1.95520000       3.24410000
H        1.69180000      -6.07780000       2.67140000
