19
Properties=species:S:1:pos:R:3 gdb_122768=T pbc="F F F"
C        0.00170000       1.41210000      -0.01940000
O        0.00640000       0.00570000      -0.00580000
C        0.64730000      -0.55350000      -1.12940000
C        0.59330000      -2.07050000      -1.00840000
C        1.26810000      -2.76410000      -2.18970000
C        1.23150000      -4.28030000      -2.09930000
O        0.71950000      -4.88350000      -1.18230000
C        1.86470000      -4.97970000      -3.20830000
C        2.39270000      -5.54110000      -4.13300000
H        1.02310000       1.82580000      -0.01980000
H       -0.52820000       1.81230000      -0.89890000
H       -0.51330000       1.74680000       0.88430000
H        0.15200000      -0.22160000      -2.05980000
H        1.69510000      -0.20690000      -1.18680000
H        1.07280000      -2.37500000      -0.07320000
H       -0.45070000      -2.38950000      -0.93490000
H        0.80490000      -2.47980000      -3.14530000
H        2.32160000      -2.46550000      -2.28720000
H        2.85550000      -6.05370000      -4.94130000
