17
Properties=species:S:1:pos:R:3 gdb_9093=T pbc="F F F"
C        0.03360000       1.48030000       0.81230000
C        0.03640000       0.12860000       0.07810000
C        0.74660000      -0.99500000       0.85000000
N        2.18530000      -0.80550000       0.96050000
C        2.78620000      -0.30440000       2.07270000
O        2.20540000       0.09710000       3.05910000
C       -1.38220000      -0.27140000      -0.28300000
O       -1.87390000      -1.35080000      -0.07180000
H        1.05410000       1.82830000       0.98210000
H       -0.49420000       2.24190000       0.22880000
H       -0.45190000       1.39350000       1.78870000
H        0.54630000       0.27520000      -0.88920000
H        0.35030000      -1.05200000       1.86660000
H        0.54650000      -1.95330000       0.36450000
H        2.77630000      -1.12830000       0.21120000
H        3.89040000      -0.30120000       1.97680000
H       -1.96740000       0.53540000      -0.78310000
