19
Properties=species:S:1:pos:R:3 gdb_91842=T pbc="F F F"
C        0.76210000       1.43120000       0.02520000
N        0.11180000       0.13540000      -0.03900000
C        0.37950000      -0.69190000      -1.21900000
C        1.12100000      -1.92830000      -0.72830000
C        2.31750000      -1.71150000       0.14770000
C        0.96080000      -1.94940000       0.78950000
C        0.15810000      -0.69510000       1.16290000
C        0.72270000      -3.16270000       1.51360000
N        0.52250000      -4.13190000       2.11390000
H        1.86320000       1.39910000       0.12460000
H        0.52750000       2.00240000      -0.87810000
H        0.36860000       1.99720000       0.87490000
H       -0.55560000      -1.00290000      -1.70710000
H        0.95830000      -0.12470000      -1.95650000
H        1.04560000      -2.84930000      -1.29420000
H        3.03830000      -2.51720000       0.22000000
H        2.73820000      -0.71570000       0.23540000
H        0.61260000      -0.14610000       1.99460000
H       -0.84710000      -1.00380000       1.48180000
