16
Properties=species:S:1:pos:R:3 gdb_105963=T pbc="F F F"
O       -0.03960000       1.39730000      -0.06660000
C        0.06580000      -0.00620000       0.06400000
C       -1.30360000      -0.60510000       0.18480000
C       -2.52850000      -0.12190000       0.87790000
C       -3.20520000      -1.50800000       0.75810000
C       -3.05770000      -1.37530000      -0.74940000
N       -2.42670000       0.00820000      -0.62380000
C       -1.95490000      -2.02560000       0.02450000
O       -1.44800000      -3.28450000      -0.11370000
H       -0.74060000       1.54660000      -0.71700000
H        0.58940000      -0.46220000      -0.79300000
H        0.66690000      -0.20440000       0.95890000
H       -2.69140000       0.73320000       1.52350000
H       -3.93530000      -2.04420000       1.34700000
H       -3.67430000      -1.70670000      -1.57500000
H       -1.19660000      -3.61880000       0.75560000
