11
Properties=species:S:1:pos:R:3 gdb_1831=T pbc="F F F"
N       -0.06230000       1.31520000       0.00850000
C       -0.00570000       0.05790000       0.00110000
N       -1.11180000      -0.78430000       0.00310000
C       -0.77900000      -2.11890000      -0.00630000
O       -1.51700000      -3.06930000      -0.00720000
C        0.74950000      -2.10590000      -0.01540000
O        1.11550000      -0.72290000      -0.00990000
H        0.87280000       1.71730000       0.00510000
H       -2.05430000      -0.42830000       0.01070000
H        1.15210000      -2.60570000       0.87090000
H        1.14140000      -2.59590000      -0.91190000
