19
Properties=species:S:1:pos:R:3 gdb_63713=T pbc="F F F"
C       -0.10920000       1.56220000       0.04000000
C        0.05390000       0.04780000       0.05800000
C       -1.26420000      -0.66680000      -0.23020000
N        1.17290000      -0.44120000      -0.84740000
C        1.73440000      -1.22320000       0.27850000
C        2.22920000      -0.25580000       1.32010000
C        0.76290000      -0.58510000       1.27500000
C        2.17160000      -2.57220000       0.14760000
N        2.51350000      -3.67140000       0.02020000
H        0.83680000       2.06650000       0.24880000
H       -0.45520000       1.89630000      -0.94380000
H       -0.84610000       1.88090000       0.78510000
H       -1.64730000      -0.38410000      -1.21700000
H       -1.13770000      -1.75400000      -0.20440000
H       -2.02430000      -0.39750000       0.51150000
H        0.80560000      -1.05280000      -1.57110000
H        2.76590000      -0.69480000       2.15420000
H        2.60760000       0.69960000       0.97080000
H        0.25260000      -1.04400000       2.11260000
