19
Properties=species:S:1:pos:R:3 gdb_92055=T pbc="F F F"
C       -0.03550000       1.59390000       0.00980000
C        0.15060000       0.07900000       0.05360000
C        0.68780000      -0.48530000      -1.28490000
C        1.20310000      -1.90920000      -1.20260000
O        2.52380000      -2.06340000      -0.66410000
C        1.42720000      -2.58440000       0.08860000
C        1.15140000      -1.87600000       1.39520000
C        1.02790000      -0.36340000       1.22310000
O        1.55050000       0.41260000       1.98590000
H        0.92810000       2.09600000      -0.11470000
H       -0.68550000       1.87960000      -0.82310000
H       -0.47740000       1.96350000       0.93810000
H       -0.82290000      -0.40520000       0.22980000
H       -0.10710000      -0.42760000      -2.03600000
H        1.50710000       0.14790000      -1.64630000
H        1.01860000      -2.53330000      -2.07730000
H        1.38410000      -3.67390000       0.12320000
H        0.20510000      -2.24770000       1.81330000
H        1.93850000      -2.08270000       2.12610000
