11
Properties=species:S:1:pos:R:3 gdb_27033=T pbc="F F F"
O        0.16040000       1.35840000       0.00650000
C        0.00380000       0.04190000       0.00090000
C       -1.10200000      -0.72120000       0.00300000
O       -0.65380000      -2.06510000      -0.00630000
C        0.69190000      -2.06680000      -0.01350000
O        1.41790000      -3.00360000      -0.02200000
O        1.12150000      -0.73900000      -0.00900000
C       -2.46660000      -0.43570000       0.01170000
C       -3.64710000      -0.19540000       0.01930000
H        1.10420000       1.56280000       0.00380000
H       -4.68690000       0.02100000       0.02600000
