18
Properties=species:S:1:pos:R:3 gdb_15444=T pbc="F F F"
O        0.04640000       1.32100000       0.32360000
C       -0.09650000      -0.08780000       0.40340000
C       -1.32670000      -0.47160000      -0.41460000
C       -1.53400000      -1.96590000      -0.43670000
O       -2.02480000      -2.58820000       0.76060000
C       -2.83440000      -2.65610000      -0.42660000
C       -4.18260000      -1.98650000      -0.32980000
O       -5.05850000      -2.74220000       0.49110000
H        0.78930000       1.58040000       0.87610000
H        0.79250000      -0.60430000       0.00440000
H       -0.23330000      -0.42450000       1.44190000
H       -2.19600000       0.04320000       0.00150000
H       -1.19310000      -0.11080000      -1.44190000
H       -0.70890000      -2.51970000      -0.89250000
H       -2.87470000      -3.65530000      -0.86480000
H       -4.07860000      -0.95750000       0.03830000
H       -4.64940000      -1.94510000      -1.32010000
H       -4.62700000      -2.82870000       1.34880000
