23
Properties=species:S:1:pos:R:3 gdb_105779=T pbc="F F F"
C        0.13140000       1.60650000      -0.31870000
C       -0.03130000       0.10350000      -0.05520000
C       -1.48250000      -0.43470000       0.05820000
C       -2.33130000      -0.13590000      -1.21540000
C       -3.29430000      -1.32660000      -1.32010000
C       -2.40750000      -2.52050000      -0.93540000
C       -1.51790000      -1.98410000       0.21000000
C       -2.17120000       0.24690000       1.23750000
O       -2.58920000      -0.29610000       2.22860000
H        1.18790000       1.84780000      -0.47100000
H       -0.40990000       1.92040000      -1.21690000
H       -0.22270000       2.21890000       0.51560000
H        0.44610000      -0.45260000      -0.87190000
H        0.51550000      -0.16840000       0.85640000
H       -2.83990000       0.83320000      -1.17320000
H       -1.66980000      -0.11070000      -2.09030000
H       -4.10990000      -1.21360000      -0.59510000
H       -3.74800000      -1.42140000      -2.31080000
H       -2.97990000      -3.40540000      -0.64400000
H       -1.78940000      -2.80660000      -1.79520000
H       -0.51060000      -2.40830000       0.17760000
H       -1.94160000      -2.23120000       1.18650000
H       -2.28590000       1.34810000       1.11760000
