17
Properties=species:S:1:pos:R:3 gdb_98367=T pbc="F F F"
C        1.30430000       1.02910000      -0.24580000
O        1.22070000      -0.35530000      -0.61960000
C        0.03540000      -0.75590000      -1.09990000
O       -0.93350000      -0.05040000      -1.20960000
C        0.06190000      -2.25220000      -1.44120000
C       -1.08230000      -2.64740000      -2.35950000
O        1.29960000      -2.59340000      -2.07450000
C        2.31010000      -3.04310000      -1.29990000
O        3.39160000      -3.28870000      -1.73740000
H        1.10760000       1.66770000      -1.10990000
H        0.57740000       1.25740000       0.53730000
H        2.32120000       1.17570000       0.11610000
H       -0.01480000      -2.79150000      -0.48480000
H       -2.03360000      -2.34940000      -1.91590000
H       -0.98280000      -2.14830000      -3.32620000
H       -1.07570000      -3.72800000      -2.51790000
H        2.01570000      -3.17140000      -0.24080000
