23
Properties=species:S:1:pos:R:3 gdb_94999=T pbc="F F F"
C       -0.23080000       1.56410000       0.02880000
C        0.00540000       0.04800000      -0.04550000
C        0.76700000      -0.37880000      -1.31560000
C        2.28610000      -0.26140000      -1.12110000
C        2.68660000      -0.73600000       0.27420000
C        1.71760000      -1.68470000       1.06480000
C        2.40570000      -1.18730000       2.36240000
C        2.18280000       0.08370000       1.50200000
C        0.74850000      -0.45890000       1.19460000
H        0.71210000       2.12010000      -0.01330000
H       -0.85580000       1.90540000      -0.80330000
H       -0.73390000       1.84220000       0.96150000
H       -0.97990000      -0.43680000      -0.06380000
H        0.52930000      -1.42890000      -1.52330000
H        0.43140000       0.19410000      -2.18720000
H        2.80450000      -0.85140000      -1.88570000
H        2.62340000       0.77470000      -1.25810000
H        3.74350000      -1.01900000       0.32920000
H        1.45020000      -2.71460000       0.81760000
H        1.82280000      -1.26330000       3.28500000
H        3.44350000      -1.49730000       2.51610000
H        2.45910000       1.10900000       1.75860000
H        0.09090000      -0.49010000       2.07120000
