19
Properties=species:S:1:pos:R:3 gdb_19062=T pbc="F F F"
C       -0.11240000       1.57670000       0.03700000
C        0.01740000       0.06300000      -0.10350000
C        0.47830000      -0.77670000      -1.24910000
C        1.57470000      -0.35830000      -2.23500000
C        2.73840000      -1.25110000      -1.65910000
C        2.54590000      -0.27940000      -0.45050000
C        2.30740000       0.81340000      -1.53120000
N        1.22880000      -0.78380000       0.04960000
H       -0.20650000       2.09240000      -0.92190000
H       -1.01440000       1.80030000       0.61370000
H        0.73080000       2.01350000       0.57900000
H       -0.78040000      -0.43840000       0.44410000
H       -0.08300000      -1.67580000      -1.49870000
H        1.32160000      -0.33780000      -3.29480000
H        2.52600000      -2.30600000      -1.47180000
H        3.68730000      -1.12530000      -2.18540000
H        3.28000000      -0.17040000       0.34700000
H        3.24050000       1.05290000      -2.04560000
H        1.78510000       1.73320000      -1.29510000
