18
Properties=species:S:1:pos:R:3 gdb_109825=T pbc="F F F"
C        0.38390000       1.22410000       0.26260000
O       -0.18350000      -0.00430000      -0.17720000
C        0.49240000      -0.55150000      -1.27310000
C        1.42690000      -1.69560000      -0.95280000
O        1.55520000      -2.05050000       0.38740000
C        0.10200000      -1.95530000      -1.66260000
C       -1.02250000      -2.66740000      -0.92360000
C       -1.25770000      -4.00870000      -1.45590000
N       -1.44570000      -5.06270000      -1.89040000
H        1.43380000       1.10330000       0.56110000
H        0.32800000       1.98620000      -0.52650000
H       -0.20280000       1.55530000       1.12170000
H        0.73250000       0.16420000      -2.05830000
H        2.35100000      -1.82700000      -1.50620000
H        1.02200000      -1.42150000       0.89250000
H        0.15710000      -2.16880000      -2.72500000
H       -0.76950000      -2.75790000       0.13720000
H       -1.95710000      -2.09920000      -0.98430000
