23
Properties=species:S:1:pos:R:3 gdb_81470=T pbc="F F F"
C       -0.07990000       1.57300000       0.00140000
C        0.03330000       0.04790000       0.01430000
C        1.20560000      -0.59710000      -0.80460000
C        2.08170000      -0.25890000       0.43950000
C        0.78220000      -0.61140000       1.22490000
C        0.56370000      -2.19020000       1.17080000
C        1.72030000      -2.83850000       0.34590000
C        0.98820000      -2.17580000      -0.86380000
C       -0.30400000      -2.55960000      -0.07450000
H        0.85630000       2.09930000       0.20090000
H       -0.44580000       1.91410000      -0.97400000
H       -0.80690000       1.90180000       0.75320000
H       -0.96660000      -0.32370000      -0.19700000
H        1.46920000      -0.18130000      -1.78050000
H        3.00440000      -0.80190000       0.62820000
H        2.31200000       0.80420000       0.49510000
H        0.63230000      -0.20960000       2.23020000
H        0.30340000      -2.60320000       2.14760000
H        2.76040000      -2.60790000       0.56460000
H        1.61210000      -3.92540000       0.31560000
H        1.14140000      -2.57490000      -1.86870000
H       -0.47330000      -3.63850000      -0.11750000
H       -1.25320000      -2.06520000      -0.26910000
