22
Properties=species:S:1:pos:R:3 gdb_96486=T pbc="F F F"
C       -0.04280000       1.59000000       0.03390000
C       -0.03740000       0.05290000       0.03610000
C        0.49100000      -0.45640000      -1.32600000
C        0.34230000      -1.96150000      -1.63510000
C        1.53850000      -2.82650000      -1.23100000
O        1.97430000      -2.58270000       0.11130000
C        0.99670000      -2.75840000       1.05350000
N        0.40600000      -1.82400000       1.65360000
C        0.74020000      -0.44780000       1.27550000
H        0.97650000       1.98750000      -0.04340000
H       -0.61550000       1.98310000      -0.81200000
H       -0.48490000       1.98720000       0.95280000
H       -1.07500000      -0.29170000       0.14530000
H       -0.05660000       0.09640000      -2.09850000
H        1.54330000      -0.16050000      -1.43640000
H       -0.57170000      -2.34650000      -1.16760000
H        0.21050000      -2.10340000      -2.71490000
H        1.30220000      -3.89320000      -1.36500000
H        2.41060000      -2.59430000      -1.84880000
H        0.75930000      -3.80240000       1.27750000
H        1.81640000      -0.32720000       1.09820000
H        0.47020000       0.18350000       2.12760000
