16
Properties=species:S:1:pos:R:3 gdb_48932=T pbc="F F F"
O       -0.82120000       1.09180000       0.26800000
C        0.28090000       0.90750000      -0.18850000
C        1.40500000       1.85850000      -0.03360000
C        1.23110000       3.25390000       0.51520000
C        2.64930000       3.74190000       0.31720000
C        3.64670000       2.60200000       0.49140000
C        3.24820000       3.06220000      -0.88550000
N        2.43680000       1.80590000      -1.14340000
C        2.79910000       1.35170000       0.21940000
H        0.53360000      -0.00800000      -0.76540000
H        0.49840000       3.82940000      -0.05820000
H        0.91750000       3.23740000       1.56290000
H        2.96100000       4.74910000       0.56300000
H        4.58570000       2.66160000       1.02140000
H        3.79270000       3.52570000      -1.69610000
H        3.05200000       0.32000000       0.43600000
