18
Properties=species:S:1:pos:R:3 gdb_39803=T pbc="F F F"
C       -0.01760000       1.45710000       0.01190000
C        1.32060000       0.73850000      -0.00990000
C        0.04900000      -0.03590000      -0.00170000
C       -0.54230000      -0.96880000       1.05390000
C       -1.66250000      -1.27580000       0.02720000
C       -0.56330000      -0.98970000      -1.04460000
N        0.29870000      -2.17740000      -1.15880000
C        0.65780000      -2.63520000      -0.03170000
O        0.31400000      -2.13060000       1.18040000
H       -0.31410000       1.95670000       0.92950000
H       -0.33860000       1.96390000      -0.89300000
H        1.89720000       0.75990000      -0.92890000
H        1.92070000       0.75210000       0.89450000
H       -0.76050000      -0.63270000       2.06720000
H       -2.10460000      -2.27370000       0.04030000
H       -2.43310000      -0.50380000       0.04850000
H       -0.84220000      -0.61880000      -2.03090000
H        1.29430000      -3.51070000       0.06810000
