23
Properties=species:S:1:pos:R:3 gdb_101008=T pbc="F F F"
C        0.02490000       1.27470000      -0.14810000
O        0.19780000      -0.12180000      -0.10250000
C        0.68240000      -0.63020000       1.13420000
C       -0.43380000      -0.72100000       2.17990000
C        1.33770000      -1.99160000       0.83860000
O        1.86420000      -2.53920000       2.03700000
C        0.48930000      -2.95800000      -0.04810000
C        1.42530000      -2.64540000      -1.24790000
C        2.41380000      -1.94650000      -0.27570000
H        0.95640000       1.80740000       0.09830000
H       -0.26630000       1.52940000      -1.17040000
H       -0.76280000       1.62760000       0.53350000
H        1.47850000       0.03100000       1.51550000
H       -0.03350000      -1.04230000       3.14600000
H       -0.90640000       0.25220000       2.33740000
H       -1.21060000      -1.42440000       1.86190000
H        1.12700000      -2.83600000       2.58080000
H        0.58620000      -3.98650000       0.30990000
H       -0.56740000      -2.71440000      -0.17520000
H        1.81110000      -3.50500000      -1.79970000
H        0.97070000      -1.94490000      -1.94900000
H        2.77500000      -0.95680000      -0.56300000
H        3.26230000      -2.57560000       0.00170000
