17
Properties=species:S:1:pos:R:3 gdb_26976=T pbc="F F F"
C        0.17450000       1.46760000      -0.02000000
C        0.05810000      -0.02160000      -0.07010000
C        0.04260000      -0.90560000      -1.13430000
C        0.14630000      -0.56070000      -2.59990000
C        1.37030000       0.16890000      -2.94980000
N        2.32700000       0.76110000      -3.21530000
C       -0.11720000      -2.21900000      -0.60530000
C       -0.19690000      -2.10670000       0.76050000
N       -0.09060000      -0.77380000       1.06900000
H        0.72660000       1.84230000      -0.88520000
H       -0.80510000       1.96290000      -0.00910000
H        0.71570000       1.79370000       0.87510000
H        0.12050000      -1.48000000      -3.19440000
H       -0.70550000       0.04340000      -2.93880000
H       -0.16160000      -3.13640000      -1.17280000
H       -0.31190000      -2.85110000       1.53120000
H       -0.09940000      -0.39410000       2.00020000
