19
Properties=species:S:1:pos:R:3 gdb_99102=T pbc="F F F"
C       -0.13310000       1.63810000      -0.64530000
C       -0.08480000       0.21410000      -0.15270000
C        1.15650000      -0.61690000      -0.26560000
C        0.64970000      -0.17620000       1.09410000
O       -1.27390000      -0.53360000      -0.44560000
C       -2.37360000      -0.26510000       0.27050000
O       -2.46130000       0.55600000       1.15250000
C       -3.54880000      -1.13010000      -0.15270000
O       -4.68260000      -0.83230000       0.61030000
H        0.83250000       2.12340000      -0.47800000
H       -0.34620000       1.66700000      -1.71890000
H       -0.90040000       2.20720000      -0.11530000
H        1.02880000      -1.65990000      -0.53110000
H        2.04510000      -0.14790000      -0.67310000
H        1.18360000       0.60110000       1.62910000
H        0.19780000      -0.92910000       1.72850000
H       -3.72950000      -0.96310000      -1.22520000
H       -3.25600000      -2.18540000      -0.04440000
H       -4.40610000      -0.13360000       1.22240000
