17
Properties=species:S:1:pos:R:3 gdb_20789=T pbc="F F F"
C        0.01360000       1.63060000       0.31470000
C       -0.02320000       0.14510000      -0.08640000
C       -1.40760000      -0.40510000      -0.16560000
C       -2.19030000      -0.85700000      -1.18920000
C       -1.88030000      -0.96370000      -2.64940000
C       -3.40140000      -1.21100000      -0.52550000
N       -3.35760000      -0.99540000       0.76390000
O       -2.08640000      -0.48080000       0.99910000
H        1.04650000       1.98470000       0.37850000
H       -0.51560000       2.24720000      -0.41790000
H       -0.46180000       1.77970000       1.28750000
H        0.46170000       0.00430000      -1.05720000
H        0.55050000      -0.44280000       0.64040000
H       -2.00150000      -1.99030000      -3.01220000
H       -2.54140000      -0.32880000      -3.24990000
H       -0.85200000      -0.65950000      -2.86190000
H       -4.30540000      -1.62010000      -0.95690000
