18
Properties=species:S:1:pos:R:3 gdb_115198=T pbc="F F F"
O        0.00410000       1.51970000      -0.11300000
C        0.02060000       0.10720000      -0.21190000
C       -1.37540000      -0.52700000      -0.00690000
C       -1.32110000      -2.05860000      -0.09310000
N       -0.79310000      -2.62560000       1.14290000
C       -1.21750000      -2.21150000       2.38410000
O       -1.01300000      -2.85790000       3.39690000
C       -1.89700000      -0.88830000       2.39910000
C       -1.96940000      -0.11010000       1.31610000
H       -0.05520000       1.74970000       0.81940000
H        0.36870000      -0.12220000      -1.22510000
H        0.73030000      -0.34260000       0.49610000
H       -2.01760000      -0.15900000      -0.81520000
H       -2.32920000      -2.44500000      -0.30730000
H       -0.67270000      -2.36840000      -0.91960000
H       -0.44750000      -3.57420000       1.12580000
H       -2.29300000      -0.59290000       3.36400000
H       -2.43360000       0.87100000       1.37330000
