13
Properties=species:S:1:pos:R:3 gdb_18664=T pbc="F F F"
O        0.02380000      -0.01860000      -0.15150000
C        0.01050000       1.18530000       0.00020000
N       -1.16960000       1.89360000       0.15320000
C       -1.28870000       3.27580000       0.07900000
C       -0.23080000       4.08690000      -0.05040000
C        1.12460000       3.51080000      -0.01080000
O        1.47830000       2.79970000       1.19230000
C        1.25440000       2.02810000       0.01390000
H       -2.00250000       1.32340000       0.14820000
H       -2.30770000       3.64170000       0.11490000
H       -0.36570000       5.15650000      -0.13590000
H        1.94520000       4.08790000      -0.43120000
H        2.12760000       1.52400000      -0.39350000
