14
Properties=species:S:1:pos:R:3 gdb_61378=T pbc="F F F"
C       -0.03860000       1.54820000      -0.25310000
C       -0.00720000       0.05840000       0.08730000
O       -1.35470000      -0.46150000       0.18710000
C       -1.89020000      -0.46220000       1.41410000
O       -1.36070000      -0.07250000       2.42320000
C       -3.31650000      -1.02960000       1.42270000
O       -3.91360000      -1.37030000       0.44320000
C        0.67370000      -0.73260000      -0.94340000
N        1.24770000      -1.32590000      -1.75040000
H        0.98090000       1.92100000      -0.37930000
H       -0.59450000       1.71620000      -1.17780000
H       -0.51370000       2.09420000       0.56470000
H        0.49140000      -0.09970000       1.04820000
H       -3.72470000      -1.07260000       2.45130000
