18
Properties=species:S:1:pos:R:3 gdb_117417=T pbc="F F F"
C        0.43450000       1.28820000       0.05280000
C       -0.46170000       0.11100000      -0.33980000
N        0.03720000      -0.63710000      -1.48110000
C        0.70930000      -1.80850000      -1.34170000
O        0.88410000      -2.41660000      -0.30780000
O        1.16060000      -2.22640000      -2.55830000
C        1.86400000      -3.47810000      -2.51860000
C        2.32640000      -3.79500000      -3.86020000
C        2.72270000      -4.08820000      -4.95490000
H        1.43270000       0.93710000       0.32960000
H        0.53920000       2.00110000      -0.77220000
H        0.00820000       1.82380000       0.90710000
H       -0.53720000      -0.60160000       0.48420000
H       -1.47440000       0.46370000      -0.56710000
H        0.03960000      -0.21430000      -2.39510000
H        2.70360000      -3.40540000      -1.81880000
H        1.19930000      -4.26120000      -2.13720000
H        3.07290000      -4.34630000      -5.92370000
