16
Properties=species:S:1:pos:R:3 gdb_42920=T pbc="F F F"
O       -0.23640000      -0.00690000      -0.06410000
C       -0.18070000       1.18140000       0.03500000
C       -1.17700000       2.31120000      -0.09730000
N       -0.92970000       3.17120000       1.11470000
C       -0.04610000       3.30150000      -0.04650000
C        1.01680000       2.19820000       0.11540000
C        1.90710000       2.21870000       1.32310000
C        3.12330000       1.40010000       1.38870000
O        3.20470000       2.80540000       1.14820000
H       -2.13050000       2.33920000      -0.60840000
H       -1.62550000       3.91590000       1.07380000
H        0.04920000       4.22520000      -0.60120000
H        1.61820000       2.07190000      -0.79170000
H        1.41160000       2.48990000       2.25320000
H        3.49410000       1.06530000       2.35620000
H        3.38820000       0.76330000       0.54560000
