15
Properties=species:S:1:pos:R:3 gdb_68703=T pbc="F F F"
C       -0.10510000       1.46650000       0.06660000
C        0.03900000      -0.01480000       0.04510000
C        1.18760000      -0.84940000      -0.37100000
C        0.61700000      -1.01980000       1.05750000
C        1.39450000      -0.83230000       2.23190000
N        2.03650000      -0.65570000       3.17820000
C       -0.72150000      -1.68280000       0.93070000
N       -1.28850000      -2.62720000       1.51690000
O       -1.17230000      -0.81270000      -0.06090000
H        0.85480000       1.93570000       0.29730000
H       -0.43690000       1.82690000      -0.91270000
H       -0.83860000       1.77280000       0.81670000
H        1.05170000      -1.65480000      -1.08510000
H        2.15590000      -0.35950000      -0.38820000
H       -2.24060000      -2.76900000       1.17690000
