16
Properties=species:S:1:pos:R:3 gdb_60793=T pbc="F F F"
C       -0.05110000       1.56450000       0.13730000
C       -0.03140000       0.03920000       0.01990000
O        0.69420000      -0.46820000       1.13360000
C       -1.41190000      -0.49160000       0.03680000
N       -2.47070000      -0.95100000       0.08810000
C        0.65860000      -0.42800000      -1.30380000
O       -0.03820000       0.01900000      -2.42330000
C        2.10520000       0.04480000      -1.34960000
O        2.51550000       0.66770000      -2.29870000
H        0.97310000       1.93320000       0.24120000
H       -0.50270000       1.99740000      -0.75650000
H       -0.62030000       1.86740000       1.01750000
H        0.50230000      -1.40820000       1.23100000
H        0.69040000      -1.53310000      -1.27090000
H        0.61420000       0.49110000      -2.96780000
H        2.74510000      -0.22080000      -0.49050000
