17
Properties=species:S:1:pos:R:3 gdb_84526=T pbc="F F F"
C       -0.51970000       1.47300000       0.02990000
C       -0.06340000       0.01350000      -0.00100000
C        0.63020000      -0.46730000      -1.26090000
C        1.73710000      -1.14840000      -0.96590000
C        1.95430000      -1.13470000       0.50980000
C        2.22910000       0.21780000       1.11570000
C        2.67830000       1.31010000       0.28920000
N        3.08310000       2.20730000      -0.31960000
N        0.86240000      -0.35420000       1.10900000
H        0.29800000       2.16670000      -0.17140000
H       -1.29430000       1.63210000      -0.72650000
H       -0.94840000       1.70760000       1.00800000
H       -0.95560000      -0.60850000       0.16650000
H        0.24750000      -0.27070000      -2.25520000
H        2.41320000      -1.62700000      -1.66180000
H        2.30470000      -2.01950000       1.03470000
H        2.64090000       0.26000000       2.12120000
