19
Properties=species:S:1:pos:R:3 gdb_65195=T pbc="F F F"
O        0.22920000       1.36190000       0.35430000
C        0.12090000      -0.01650000       0.10240000
C        1.21170000      -0.66340000      -0.71310000
C        1.16140000      -0.86110000       0.78810000
C       -1.27890000      -0.55710000       0.02210000
C       -2.41860000       0.07260000       0.74290000
C       -2.42440000       0.08240000      -0.78290000
C       -2.29450000       1.36870000      -1.50190000
O       -2.71140000       1.56300000      -2.61930000
H        0.29340000       1.81870000      -0.49110000
H        0.95070000      -1.49500000      -1.35870000
H        1.98810000      -0.01390000      -1.10310000
H        1.88880000      -0.32580000       1.38660000
H        0.87200000      -1.83150000       1.17570000
H       -1.29690000      -1.64160000      -0.04230000
H       -3.15020000      -0.55030000       1.24420000
H       -2.21800000       1.02540000       1.22140000
H       -3.07610000      -0.61880000      -1.29370000
H       -1.79960000       2.18270000      -0.92800000
