20
Properties=species:S:1:pos:R:3 gdb_113737=T pbc="F F F"
C       -0.54860000       1.62570000      -0.79460000
C       -0.61840000       0.11740000      -0.57120000
N        0.46380000      -0.54560000      -1.29770000
C        1.69690000      -0.84960000      -0.58320000
C        0.78690000      -1.94070000      -1.03610000
C        0.01840000      -2.78230000      -0.02460000
O       -1.28800000      -3.10820000      -0.49810000
C        0.78830000      -3.98210000       0.31900000
C        1.41830000      -4.98030000       0.54710000
H        0.39050000       2.03560000      -0.40820000
H       -0.60390000       1.85880000      -1.86150000
H       -1.37410000       2.12940000      -0.28220000
H       -0.59350000      -0.08960000       0.51190000
H       -1.56340000      -0.28590000      -0.94910000
H        2.62790000      -0.64950000      -1.10650000
H        1.72710000      -0.64940000       0.48870000
H        1.05470000      -2.50380000      -1.93080000
H       -0.15610000      -2.19970000       0.88520000
H       -1.18520000      -3.71830000      -1.23760000
H        1.97120000      -5.85910000       0.77100000
