21
Properties=species:S:1:pos:R:3 gdb_103734=T pbc="F F F"
C        0.06120000       1.42720000      -0.32400000
C       -0.10210000       0.03600000       0.30270000
C       -1.49890000      -0.54860000       0.12160000
C       -2.59760000       0.16910000       0.88360000
C       -1.83110000      -1.16670000      -1.20710000
C       -1.56880000      -2.08670000      -0.02690000
O       -0.35140000      -2.77680000       0.05680000
C       -2.70370000      -2.85060000       0.56140000
O       -3.87770000      -2.59390000       0.42900000
H        1.08870000       1.78320000      -0.20130000
H       -0.16010000       1.40640000      -1.39650000
H       -0.60010000       2.16670000       0.13750000
H        0.63330000      -0.64870000      -0.12490000
H        0.11890000       0.09010000       1.37630000
H       -2.69360000       1.19830000       0.52270000
H       -3.56370000      -0.32110000       0.76190000
H       -2.36470000       0.21240000       1.95370000
H       -2.85820000      -1.12840000      -1.55560000
H       -1.06940000      -1.16190000      -1.98080000
H       -0.30280000      -3.39350000      -0.68130000
H       -2.35910000      -3.72800000       1.15300000
