15
Properties=species:S:1:pos:R:3 gdb_11294=T pbc="F F F"
C        0.02820000       1.53640000      -0.06180000
C        0.13150000       0.03170000      -0.03830000
O        0.90410000      -0.43940000      -1.11820000
C        1.31900000      -1.73400000      -0.74100000
C        1.48110000      -1.61280000       0.81050000
O        0.82820000      -0.39700000       1.13310000
C        0.89120000      -2.75710000       1.52390000
N        0.43940000      -3.66830000       2.07200000
H        1.02870000       1.97470000      -0.05370000
H       -0.50030000       1.85690000      -0.96280000
H       -0.52520000       1.88300000       0.81380000
H       -0.86400000      -0.44720000      -0.05520000
H        0.56460000      -2.49160000      -0.99160000
H        2.25530000      -1.97120000      -1.24800000
H        2.53290000      -1.52940000       1.10400000
