21
Properties=species:S:1:pos:R:3 gdb_111151=T pbc="F F F"
C        0.02560000       1.54600000      -0.14170000
C        0.00350000       0.04730000       0.18150000
C       -1.39460000      -0.54390000       0.11940000
C       -2.01700000      -0.89880000      -1.26810000
O       -1.04810000      -2.01870000      -1.38970000
C       -1.56800000      -2.08790000       0.00180000
C       -2.97580000      -1.86380000      -0.56160000
C       -4.34150000      -1.75620000       0.02250000
C       -4.02130000      -2.78890000      -1.05900000
H        1.04000000       1.95030000      -0.07070000
H       -0.33700000       1.73860000      -1.15730000
H       -0.60800000       2.11440000       0.54870000
H        0.64740000      -0.50020000      -0.51240000
H        0.40940000      -0.11290000       1.18910000
H       -2.08730000      -0.05810000       0.81580000
H       -2.17870000      -0.27440000      -2.14780000
H       -1.18890000      -2.88530000       0.64280000
H       -4.50660000      -2.11540000       1.03350000
H       -4.96150000      -0.90890000      -0.25330000
H       -4.42980000      -2.62610000      -2.05120000
H       -3.97440000      -3.83230000      -0.76430000
