17
Properties=species:S:1:pos:R:3 gdb_50109=T pbc="F F F"
O        0.08870000      -0.02230000      -0.77430000
C        0.06650000       1.03140000      -0.18930000
C        1.29080000       1.82770000       0.09770000
C        1.18940000       3.32860000       0.02060000
N        1.41700000       2.67990000       1.28920000
C        0.36230000       2.71580000       2.29800000
C        0.72400000       3.80920000       3.32200000
C       -0.26800000       3.91210000       4.38840000
N       -1.06550000       3.97780000       5.22180000
H       -0.89070000       1.47820000       0.15860000
H        2.21180000       1.33910000      -0.20860000
H        2.01850000       3.88820000      -0.40250000
H        0.20100000       3.74700000      -0.17410000
H       -0.63800000       2.92250000       1.89180000
H        0.32340000       1.74450000       2.80040000
H        1.70580000       3.59160000       3.75360000
H        0.80440000       4.77870000       2.81770000
