19
Properties=species:S:1:pos:R:3 gdb_37025=T pbc="F F F"
C        0.06800000       1.44240000       0.04570000
C        1.35070000       0.66540000      -0.04790000
C        1.76790000       0.06350000       1.29860000
C        0.37560000      -0.66350000       1.35060000
C        0.03580000      -0.07640000      -0.03900000
C       -0.31980000      -0.80770000      -1.26760000
C        0.62370000      -0.92820000      -2.20660000
C        2.01800000      -0.35470000      -2.06390000
O        2.13620000       0.76910000      -1.18370000
H       -0.22160000       1.94120000       0.96830000
H       -0.20260000       1.96170000      -0.86600000
H        2.59030000      -0.64850000       1.19590000
H        2.00850000       0.76730000       2.10170000
H        0.47020000      -1.75100000       1.34700000
H       -0.29690000      -0.37060000       2.16250000
H       -1.31190000      -1.23150000      -1.40540000
H        0.43200000      -1.46680000      -3.13110000
H        2.70880000      -1.15470000      -1.74550000
H        2.37780000      -0.00050000      -3.03550000
