15
Properties=species:S:1:pos:R:3 gdb_93472=T pbc="F F F"
N       -0.00420000       1.44800000       0.21180000
C       -0.01220000       0.01610000      -0.03290000
C       -1.44200000      -0.51020000      -0.10030000
O       -1.47340000      -1.92530000      -0.33900000
C       -0.72400000      -2.44530000      -1.33100000
O       -0.89600000      -3.55740000      -1.74190000
N        0.27410000      -1.60580000      -1.83870000
C        0.73210000      -0.41290000      -1.30040000
O        1.63690000       0.21330000      -1.79960000
H        0.96130000       1.76050000       0.26710000
H       -0.38870000       1.93080000      -0.59740000
H        0.48960000      -0.48160000       0.80860000
H       -1.95790000      -0.35660000       0.84700000
H       -2.00550000       0.00210000      -0.89200000
H        0.78790000      -1.98500000      -2.62380000
