21
Properties=species:S:1:pos:R:3 gdb_62948=T pbc="F F F"
C       -0.08470000       1.59410000      -0.08180000
C        0.02850000       0.07270000      -0.00490000
C       -1.34370000      -0.59030000      -0.14900000
C        1.07670000      -0.61360000      -0.91980000
C        2.48400000      -0.23860000      -0.55740000
C        1.76450000      -1.25670000       0.28970000
C        0.79940000      -0.53530000       1.20330000
C        0.97550000      -0.05990000       2.57700000
O        0.12600000      -1.18000000       2.26840000
H        0.88740000       2.08570000       0.01650000
H       -0.52030000       1.90210000      -1.03920000
H       -0.73470000       1.97770000       0.71290000
H       -1.80100000      -0.31420000      -1.10560000
H       -1.26420000      -1.68040000      -0.10820000
H       -2.01440000      -0.27630000       0.65580000
H        0.83510000      -1.07120000      -1.87220000
H        3.25330000      -0.64110000      -1.20910000
H        2.72110000       0.74220000      -0.15310000
H        2.11960000      -2.26980000       0.43050000
H        1.88630000      -0.30320000       3.12310000
H        0.45410000       0.83320000       2.91930000
