19
Properties=species:S:1:pos:R:3 gdb_52942=T pbc="F F F"
C        0.03290000       1.46120000      -0.03180000
C        0.01600000       0.00680000      -0.00880000
C        0.00940000      -1.19710000       0.00280000
C       -0.03090000      -2.63430000       0.04980000
C        0.20820000      -3.47570000       1.34070000
C       -0.39660000      -4.59050000       0.43410000
C       -1.32500000      -3.48150000      -0.14770000
C        0.67010000      -4.64810000      -0.66440000
O        0.88800000      -3.23860000      -0.89440000
H        0.74940000       1.83300000      -0.77250000
H       -0.95150000       1.86760000      -0.28900000
H        0.31930000       1.87240000       0.94250000
H        1.24400000      -3.57340000       1.67360000
H       -0.44770000      -3.18710000       2.16260000
H       -0.77580000      -5.53180000       0.82840000
H       -2.12820000      -3.19340000       0.53120000
H       -1.68800000      -3.58450000      -1.17270000
H        1.60340000      -5.12490000      -0.34210000
H        0.32210000      -5.12980000      -1.58600000
