11
Properties=species:S:1:pos:R:3 gdb_1009=T pbc="F F F"
C        0.07410000      -1.16610000      -0.00470000
C       -0.01620000       0.03430000       0.00330000
C       -0.08320000       1.44590000       0.01210000
N       -1.17370000       2.19680000       0.03050000
C       -0.72890000       3.48990000       0.03200000
C        0.64440000       3.53540000       0.01440000
N        1.04660000       2.22620000       0.00180000
H        0.13580000      -2.22620000      -0.01160000
H       -1.41860000       4.32000000       0.04560000
H        1.34880000       4.35030000       0.00990000
H        1.99330000       1.88490000      -0.01240000
