21
Properties=species:S:1:pos:R:3 gdb_121863=T pbc="F F F"
C       -0.09960000       1.40380000       0.05380000
C        0.08420000      -0.09610000       0.04950000
O        0.28210000      -0.72680000       1.06750000
C        0.01850000      -0.84760000      -1.28340000
O        0.27220000      -2.20900000      -1.06730000
C       -1.33850000      -0.64660000      -1.98660000
C       -1.40370000      -1.38870000      -3.32380000
C       -2.76350000      -1.26450000      -3.99800000
O       -2.70160000      -1.95920000      -5.23380000
H        0.41090000       1.87310000      -0.79240000
H       -1.16550000       1.64220000      -0.03790000
H        0.26910000       1.81550000       0.99420000
H        0.80570000      -0.41860000      -1.93030000
H        0.38600000      -2.29330000      -0.10580000
H       -2.12830000      -1.01080000      -1.31620000
H       -1.51380000       0.42520000      -2.14430000
H       -0.63890000      -0.99850000      -4.00700000
H       -1.17750000      -2.44660000      -3.16410000
H       -3.54290000      -1.68540000      -3.34120000
H       -3.01070000      -0.20010000      -4.15170000
H       -3.56600000      -1.90880000      -5.65160000
