17
Properties=species:S:1:pos:R:3 gdb_10509=T pbc="F F F"
O        0.38050000       0.98210000       0.58960000
C       -0.26980000       0.38530000      -0.52130000
C       -1.42880000      -0.49780000      -0.10800000
C       -1.93550000      -1.54980000      -1.04270000
C       -1.22520000      -1.95050000       0.23410000
O       -2.42620000       0.22100000       0.58950000
C       -2.22100000       0.41060000       1.91560000
N       -2.91270000       1.26760000       2.53360000
H       -0.13090000       1.75450000       0.85090000
H       -0.63220000       1.14720000      -1.22550000
H        0.47870000      -0.22130000      -1.04170000
H       -3.00970000      -1.68660000      -1.07860000
H       -1.42530000      -1.68190000      -1.99070000
H       -0.22040000      -2.35380000       0.17320000
H       -1.83450000      -2.37150000       1.02550000
H       -1.44760000      -0.24210000       2.33310000
H       -2.66640000       1.25760000       3.52170000
