17
Properties=species:S:1:pos:R:3 gdb_17343=T pbc="F F F"
O       -0.04630000       1.38720000       0.08910000
C       -0.00900000      -0.00590000       0.03850000
C       -0.38070000      -0.72160000      -1.23550000
C       -1.29060000      -0.79400000      -0.02200000
C       -1.15750000      -1.95200000       0.96700000
N        0.14620000      -1.83510000       1.67160000
C        1.33970000      -2.09280000       0.85510000
C        0.87180000      -0.69940000       1.06570000
H        0.68980000       1.72490000      -0.43240000
H       -0.73150000      -0.08400000      -2.04100000
H        0.16900000      -1.59500000      -1.56700000
H       -2.24020000      -0.27440000      -0.08640000
H       -1.94720000      -1.87830000       1.72150000
H       -1.24550000      -2.93900000       0.49840000
H        2.19280000      -2.47130000       1.41360000
H        1.22410000      -2.54450000      -0.12620000
H        1.39670000      -0.02800000       1.74010000
