20
Properties=species:S:1:pos:R:3 gdb_68747=T pbc="F F F"
C       -0.00120000       1.50470000      -0.07600000
C       -0.00060000       0.00020000       0.02620000
C        1.23910000      -0.81130000      -0.22300000
C        0.62330000      -0.78660000       1.17050000
C        1.36360000      -0.21700000       2.35280000
C       -0.29830000      -1.93400000       1.40630000
N       -0.22070000      -2.75230000       2.36580000
O       -1.25330000      -1.97780000       0.42250000
C       -1.28930000      -0.73770000      -0.30170000
H        0.95210000       1.92560000       0.25490000
H       -0.15940000       1.82810000      -1.11150000
H       -0.79500000       1.94640000       0.53680000
H        1.17420000      -1.72210000      -0.81070000
H        2.17160000      -0.26720000      -0.33420000
H        2.01620000       0.60860000       2.05530000
H        0.67000000       0.14910000       3.11620000
H        1.97870000      -0.99380000       2.81540000
H       -0.98800000      -3.42510000       2.32520000
H       -2.16630000      -0.16140000       0.02210000
H       -1.40110000      -0.97430000      -1.36520000
