16
Properties=species:S:1:pos:R:3 gdb_54090=T pbc="F F F"
N        0.04830000       1.27330000      -0.09120000
C       -0.05170000      -0.08170000       0.15840000
O        0.88980000      -0.76020000       0.51660000
N       -1.32480000      -0.64710000       0.00900000
C       -1.37930000      -2.10600000       0.04160000
C       -0.98810000      -2.68000000       1.39810000
O       -0.67160000      -3.82710000       1.55440000
C       -2.49920000       0.09290000      -0.03910000
N       -3.63400000      -0.45480000      -0.20580000
H        1.00680000       1.58920000      -0.06890000
H       -0.50110000       1.67000000      -0.83770000
H       -2.41420000      -2.38660000      -0.17190000
H       -0.72820000      -2.53680000      -0.72200000
H       -1.06310000      -1.96110000       2.24390000
H       -2.33110000       1.16160000       0.11020000
H       -4.37360000       0.24330000      -0.18810000
