23
Properties=species:S:1:pos:R:3 gdb_56627=T pbc="F F F"
C       -0.35060000       1.42900000       0.04810000
C        0.07430000      -0.04960000      -0.08540000
C        0.87690000      -0.25440000      -1.29420000
C        1.54450000      -0.40960000      -2.28250000
C        0.80350000      -0.56990000       1.16420000
C        2.09730000       0.15060000       1.50140000
C       -0.05230000      -1.04770000       2.31780000
C        0.73770000      -2.04610000       1.50040000
C        0.05210000      -3.09090000       0.64550000
H        0.51800000       2.08990000       0.09860000
H       -0.95100000       1.73250000      -0.81360000
H       -0.94620000       1.56720000       0.95550000
H       -0.84590000      -0.63410000      -0.20130000
H        2.12670000      -0.55430000      -3.15860000
H        1.92470000       1.20190000       1.75580000
H        2.58610000      -0.31710000       2.36140000
H        2.79440000       0.11800000       0.65750000
H        0.26680000      -0.81820000       3.32930000
H       -1.13090000      -1.04300000       2.18560000
H        1.63930000      -2.41910000       1.98130000
H       -0.90860000      -2.74520000       0.25370000
H        0.67390000      -3.38030000      -0.20810000
H       -0.14900000      -3.99170000       1.23580000
