17
Properties=species:S:1:pos:R:3 gdb_72971=T pbc="F F F"
C       -0.10680000       1.52690000       0.06020000
C        0.06360000       0.04270000       0.12100000
N       -1.05390000      -0.89440000      -0.13550000
C       -0.56170000      -1.77970000       0.97970000
C        0.70090000      -0.93080000       1.10950000
C        1.29110000      -0.75270000      -0.29700000
O        1.20200000      -1.73600000      -1.27230000
C        2.53460000      -0.02040000      -0.33390000
N        3.52030000       0.58490000      -0.33570000
H        0.84430000       2.03310000       0.24210000
H       -0.46750000       1.83100000      -0.92910000
H       -0.82900000       1.87150000       0.80870000
H       -1.95540000      -0.47900000       0.07010000
H       -1.18920000      -1.71650000       1.87230000
H       -0.43550000      -2.82630000       0.68850000
H        1.29000000      -0.77010000       2.00300000
H        0.26440000      -1.73910000      -1.53250000
