19
Properties=species:S:1:pos:R:3 gdb_66789=T pbc="F F F"
C       -0.01520000       1.50560000       0.01550000
C        0.07220000       0.00230000       0.00620000
C        0.63740000      -0.74460000      -1.23730000
C        0.66350000      -2.17230000      -0.74390000
C        0.57340000      -2.18700000       0.77880000
C       -0.76580000      -1.62930000       1.21240000
C        0.48770000      -0.76900000       1.29300000
C       -1.21570000      -0.90090000      -0.07870000
C       -0.61590000      -1.60480000      -1.32160000
H        0.98120000       1.95980000       0.07860000
H       -0.49400000       1.87900000      -0.89650000
H       -0.59820000       1.86190000       0.87210000
H        1.27190000      -0.34740000      -2.02170000
H        1.21580000      -2.92690000      -1.28890000
H        1.05850000      -2.95260000       1.37040000
H       -1.37970000      -2.04730000       2.00110000
H        1.02480000      -0.38770000       2.15430000
H       -2.20120000      -0.44280000      -0.13260000
H       -1.13210000      -2.00680000      -2.18500000
