15
Properties=species:S:1:pos:R:3 gdb_16582=T pbc="F F F"
C       -0.00000000       1.54280000       0.06620000
C        0.04100000       0.04610000      -0.13890000
C        0.67320000      -0.66900000      -1.26070000
C        1.95660000      -0.02810000      -1.76730000
O        1.83400000       1.16500000      -2.49740000
C        2.38810000      -0.00550000      -0.28050000
O        3.32610000       0.40660000       0.32820000
N        1.25540000      -0.78560000       0.17500000
H        0.81460000       2.05800000      -0.44330000
H       -0.94260000       1.93370000      -0.33060000
H        0.04060000       1.77730000       1.13450000
H       -0.83400000      -0.46670000       0.25550000
H        0.21720000      -1.53890000      -1.71810000
H        2.56540000      -0.77590000      -2.29830000
H        2.72130000       1.50320000      -2.66320000
