22
Properties=species:S:1:pos:R:3 gdb_6084=T pbc="F F F"
C        0.07120000       1.52030000       0.13240000
C       -0.05320000      -0.00890000      -0.01790000
C       -1.53010000      -0.45110000      -0.02500000
C        0.64480000      -0.48080000      -1.21540000
C        1.21120000      -0.85640000      -2.21120000
C        1.88390000      -1.32860000      -3.42310000
C        2.10010000      -2.85440000      -3.38100000
C        1.10900000      -0.90900000      -4.68820000
H        1.11960000       1.82770000       0.16740000
H       -0.40250000       2.02950000      -0.71280000
H       -0.41910000       1.85390000       1.05290000
H        0.42770000      -0.46940000       0.85700000
H       -2.06030000      -0.00730000      -0.87350000
H       -1.61470000      -1.53810000      -0.10500000
H       -2.02840000      -0.13160000       0.89620000
H        2.87430000      -0.85330000      -3.46670000
H        2.64060000      -3.18740000      -4.27310000
H        2.67570000      -3.14550000      -2.49840000
H        1.13960000      -3.37800000      -3.34610000
H        0.98030000       0.17590000      -4.72870000
H        1.64580000      -1.22810000      -5.58760000
H        0.11550000      -1.36810000      -4.70050000
