17
Properties=species:S:1:pos:R:3 gdb_49787=T pbc="F F F"
O       -0.46030000       0.28670000      -0.10750000
C       -0.06540000       1.40930000       0.06970000
C        1.41100000       1.81470000       0.04230000
C        1.68440000       2.52190000      -1.26580000
C        2.24960000       3.72140000      -1.37590000
C        2.73160000       4.55220000      -0.22000000
C        2.37080000       3.98250000       1.13110000
O        0.97530000       3.85970000       1.41900000
C        1.74270000       2.65830000       1.25920000
H       -0.75990000       2.25780000       0.24190000
H        1.98590000       0.88080000       0.08280000
H        1.38550000       1.98010000      -2.15920000
H        2.40920000       4.14160000      -2.36570000
H        3.82470000       4.65710000      -0.27570000
H        2.33600000       5.57440000      -0.29720000
H        2.95970000       4.35200000       1.97090000
H        1.88550000       2.09980000       2.18430000
