18
Properties=species:S:1:pos:R:3 gdb_102424=T pbc="F F F"
C       -0.79940000       1.08930000      -0.46760000
C       -0.26220000      -0.31470000      -0.18540000
C        0.71100000      -0.33820000       1.00530000
O       -0.00250000       0.06410000       2.15760000
C        0.81200000       0.34820000       3.28000000
C        1.30670000      -1.67170000       1.17760000
C        1.78460000      -2.77260000       1.32150000
C        2.32660000      -4.01570000       1.48140000
N        2.78960000      -5.07240000       1.61750000
H        0.00980000       1.77720000      -0.73670000
H       -1.50870000       1.06760000      -1.29950000
H       -1.30940000       1.49180000       0.41020000
H       -1.08260000      -1.00380000       0.04070000
H        0.26120000      -0.71340000      -1.06070000
H        1.53440000       0.37190000       0.80830000
H        1.36200000      -0.53910000       3.62100000
H        1.53480000       1.14770000       3.05880000
H        0.14420000       0.68120000       4.07680000
