16
Properties=species:S:1:pos:R:3 gdb_25623=T pbc="F F F"
C       -0.08690000       1.44720000      -0.00390000
C       -0.02260000      -0.00490000      -0.02230000
C        0.01680000      -1.21370000      -0.04610000
C        0.11360000      -2.60940000      -0.06390000
C        1.21080000      -3.44150000      -0.01200000
N        2.54810000      -3.05630000       0.00250000
C        0.70530000      -4.77940000      -0.05950000
C       -0.64800000      -4.66540000      -0.14060000
O       -1.03550000      -3.37570000      -0.15080000
H        0.57820000       1.88990000      -0.75460000
H       -1.10400000       1.78940000      -0.22510000
H        0.19290000       1.85780000       0.97370000
H        2.67290000      -2.08680000       0.26460000
H        3.14010000      -3.65560000       0.56120000
H        1.27810000      -5.69370000      -0.04490000
H       -1.44040000      -5.39420000      -0.19730000
