21
Properties=species:S:1:pos:R:3 gdb_101087=T pbc="F F F"
C       -0.14320000       1.63740000       0.15090000
C       -0.10340000       0.11470000       0.29730000
C       -1.41380000      -0.55150000      -0.15870000
O       -1.72670000      -0.24420000      -1.50780000
C       -1.40810000      -2.06290000       0.06900000
C       -1.65560000      -2.61400000       1.46650000
C       -2.71700000      -2.76760000       0.43470000
C       -0.52730000      -2.86630000      -0.80570000
O        0.10130000      -2.43290000      -1.74750000
H        0.81320000       2.08680000       0.43410000
H       -0.36490000       1.91620000      -0.88220000
H       -0.92040000       2.07620000       0.78720000
H        0.72300000      -0.29860000      -0.29230000
H        0.08810000      -0.15990000       1.34230000
H       -2.23790000      -0.12790000       0.43180000
H       -1.04260000      -0.67390000      -2.04010000
H       -1.09810000      -3.49290000       1.77390000
H       -1.79180000      -1.87560000       2.24920000
H       -3.59250000      -2.12980000       0.47470000
H       -2.89820000      -3.75380000       0.02080000
H       -0.48720000      -3.95120000      -0.55380000
