20
Properties=species:S:1:pos:R:3 gdb_73980=T pbc="F F F"
C       -0.29790000       1.37720000       0.03770000
C       -0.06520000      -0.05410000       0.39340000
C       -1.02160000      -1.01350000       0.45580000
C       -1.66690000      -1.29120000      -0.91830000
C       -0.50870000      -2.36770000      -1.03720000
C       -0.51850000      -3.47940000      -2.04710000
C       -0.34330000      -2.40150000       0.43220000
N        0.84600000      -2.11580000      -0.34830000
C        1.25690000      -0.75580000       0.08980000
H        0.22240000       1.65750000      -0.88820000
H       -1.36480000       1.59230000      -0.07080000
H        0.09000000       2.04330000       0.82000000
H       -2.62190000      -1.83070000      -0.92230000
H       -1.71530000      -0.45640000      -1.62440000
H       -0.25600000      -3.10890000      -3.04460000
H        0.20120000      -4.25420000      -1.77370000
H       -1.51540000      -3.93020000      -2.11070000
H       -0.40870000      -3.21260000       1.15000000
H        1.77570000      -0.20670000      -0.70590000
H        1.97080000      -0.88490000       0.91470000
