17
Properties=species:S:1:pos:R:3 gdb_53244=T pbc="F F F"
C        0.40560000       1.53800000      -0.43900000
C        0.10540000       0.13370000      -0.20500000
C       -0.15050000      -1.02760000      -0.01310000
C       -0.45270000      -2.42750000       0.21880000
C        0.17150000      -3.09680000       1.47240000
C       -1.29630000      -3.31350000       1.92480000
O       -1.79740000      -2.65650000       0.73170000
C       -1.74840000      -4.68830000       2.06020000
C       -2.11160000      -5.82810000       2.17900000
H        1.24660000       1.87430000       0.17730000
H        0.66430000       1.72200000      -1.48740000
H       -0.45700000       2.16750000      -0.19410000
H       -0.30230000      -3.00330000      -0.70310000
H        0.73360000      -4.00900000       1.27730000
H        0.74830000      -2.42570000       2.10730000
H       -1.57460000      -2.74300000       2.81970000
H       -2.43980000      -6.83280000       2.28350000
