21
Properties=species:S:1:pos:R:3 gdb_98351=T pbc="F F F"
C        0.11570000       1.51560000       0.08800000
C       -0.04400000       0.00210000      -0.03090000
C       -1.49480000      -0.46160000      -0.03380000
O       -2.41730000       0.31610000      -0.11800000
C       -1.73110000      -1.97300000       0.07730000
C       -1.66460000      -2.39330000       1.56170000
C       -3.08360000      -2.36310000      -0.55500000
C       -3.18030000      -3.85880000      -0.73910000
O       -3.95560000      -4.58240000      -0.16860000
H        1.17040000       1.79880000       0.03420000
H       -0.42490000       2.02580000      -0.71260000
H       -0.29030000       1.87840000       1.03610000
H        0.40430000      -0.36720000      -0.96540000
H        0.49640000      -0.52450000       0.76600000
H       -0.91700000      -2.48090000      -0.45880000
H       -2.42240000      -1.85810000       2.14230000
H       -1.85770000      -3.46460000       1.66700000
H       -0.68490000      -2.18300000       1.99970000
H       -3.91440000      -2.01420000       0.06170000
H       -3.16890000      -1.88960000      -1.54120000
H       -2.43930000      -4.27720000      -1.46290000
