17
Properties=species:S:1:pos:R:3 gdb_3045=T pbc="F F F"
O       -0.50250000       0.68780000       0.79470000
C        0.05610000       1.05730000      -0.20580000
C        1.36620000       1.80690000      -0.24820000
C        1.23560000       3.15280000      -0.98820000
C        2.56370000       3.86200000      -1.14620000
C        3.47950000       3.51620000      -2.29390000
C        2.77470000       4.85150000      -2.26220000
H       -0.38910000       0.86380000      -1.21170000
H        1.72520000       1.94450000       0.77600000
H        2.09310000       1.18030000      -0.78470000
H        0.79680000       2.98160000      -1.98050000
H        0.53080000       3.79630000      -0.44640000
H        3.05530000       4.09790000      -0.20540000
H        4.54900000       3.49170000      -2.11760000
H        3.13330000       2.78160000      -3.01450000
H        1.95890000       5.00840000      -2.96050000
H        3.36170000       5.74060000      -2.06090000
