18
Properties=species:S:1:pos:R:3 gdb_76705=T pbc="F F F"
C        0.14310000       1.68680000       0.10410000
C        0.10310000       0.17520000       0.04040000
C        1.38270000      -0.63760000       0.14980000
O        2.59380000       0.00040000       0.42740000
C        0.36810000      -0.64940000       1.27410000
O        0.64490000       0.06100000       2.44130000
C        1.59910000      -0.58930000       3.26080000
C        1.79120000       0.20160000       4.47940000
N        1.96500000       0.80210000       5.45000000
H        0.91250000       2.03180000       0.79560000
H        0.34420000       2.11130000      -0.88580000
H       -0.81650000       2.08500000       0.44720000
H       -0.64600000      -0.23500000      -0.63180000
H        1.47030000      -1.53790000      -0.45840000
H        2.82270000       0.56790000      -0.31600000
H       -0.20730000      -1.56230000       1.43430000
H        1.25840000      -1.59620000       3.54880000
H        2.55950000      -0.68880000       2.74040000
