14
Properties=species:S:1:pos:R:3 gdb_30548=T pbc="F F F"
N       -0.09550000       1.37110000       0.06310000
C       -0.13240000       0.03710000      -0.16260000
N       -1.05940000      -0.70970000       0.31530000
C       -0.92610000      -2.06210000       0.19960000
C        0.07270000      -2.94100000       0.35140000
O       -0.42690000      -4.22670000       0.16910000
C       -1.76550000      -4.09430000      -0.09870000
N       -2.60420000      -5.00030000      -0.33700000
O       -2.08780000      -2.77080000      -0.07580000
H        0.46720000       1.95930000      -0.52650000
H       -0.89470000       1.79140000       0.51260000
H        0.70400000      -0.34980000      -0.75650000
H        1.10180000      -2.84470000       0.64390000
H       -2.15480000      -5.91170000      -0.30720000
