21
Properties=species:S:1:pos:R:3 gdb_103569=T pbc="F F F"
C       -0.11910000       1.55420000      -0.40460000
C       -0.10120000       0.05240000      -0.09700000
C       -1.47680000      -0.54520000       0.18950000
C       -2.20930000       0.09710000       1.35580000
O       -2.31760000      -0.45770000      -1.03770000
C       -2.37730000      -1.81800000      -1.16160000
O       -2.89150000      -2.44820000      -2.03120000
C       -1.59270000      -2.10030000       0.11920000
C       -0.37910000      -3.01550000       0.01790000
H        0.87490000       1.88960000      -0.71400000
H       -0.81810000       1.77130000      -1.21730000
H       -0.41060000       2.15010000       0.46490000
H        0.33500000      -0.47660000      -0.95040000
H        0.54900000      -0.15150000       0.76320000
H       -2.36700000       1.16500000       1.18710000
H       -3.18790000      -0.36970000       1.49850000
H       -1.63160000      -0.02280000       2.27850000
H       -2.27010000      -2.47230000       0.89490000
H        0.30840000      -2.71080000      -0.77440000
H        0.17440000      -3.04310000       0.96160000
H       -0.71050000      -4.03310000      -0.20790000
