16
Properties=species:S:1:pos:R:3 gdb_33863=T pbc="F F F"
N       -0.05420000      -1.10550000      -0.20890000
C       -0.03700000       0.04730000      -0.10580000
C       -0.02200000       1.47470000       0.03460000
C        0.45750000       2.30440000      -1.14540000
C        1.30980000       2.24540000       0.08770000
C        1.11760000       3.35060000       1.10030000
O        0.11680000       4.31260000       0.74030000
C       -0.24010000       3.27840000       1.66630000
C       -0.98960000       2.10290000       1.05640000
H        0.79470000       1.75200000      -2.01430000
H       -0.06890000       3.22940000      -1.34390000
H        2.25330000       1.71500000       0.06950000
H        1.97450000       3.74240000       1.63980000
H       -0.49670000       3.62300000       2.66510000
H       -1.93580000       2.41000000       0.60060000
H       -1.21920000       1.37370000       1.83940000
