10
Properties=species:S:1:pos:R:3 gdb_21745=T pbc="F F F"
O       -0.05640000       1.40060000       0.01040000
C        1.27880000       1.71520000      -0.00110000
N        2.11900000       0.71920000      -0.01460000
C        1.26610000      -0.35180000      -0.01200000
C       -0.03530000       0.03620000       0.00290000
C       -0.77620000      -1.15940000       0.00370000
N        0.05570000      -2.18780000      -0.01000000
O        1.37940000      -1.67740000      -0.02020000
H        1.51180000       2.76850000       0.00230000
H       -1.83770000      -1.35400000       0.01310000
