19
Properties=species:S:1:pos:R:3 gdb_17497=T pbc="F F F"
C       -0.10270000       1.52190000       0.02140000
C       -0.04500000       0.02120000      -0.01330000
C       -0.88120000      -0.86120000       0.87870000
C        0.61960000      -0.97400000       0.91040000
N        1.30050000      -1.71450000      -0.22280000
C        0.28890000      -2.23220000      -1.17270000
C        0.60150000      -0.78530000      -1.18130000
C        1.34550000      -0.11220000      -2.29900000
H        0.84450000       1.97770000      -0.28520000
H       -0.88770000       1.90990000      -0.63970000
H       -0.32480000       1.87340000       1.03390000
H       -1.27510000      -0.33740000       1.74570000
H       -1.54860000      -1.63540000       0.51780000
H        1.20060000      -0.82880000       1.81310000
H        0.74710000      -2.82930000      -1.95680000
H       -0.65340000      -2.63330000      -0.82010000
H        0.65220000       0.34490000      -3.01500000
H        2.01030000       0.67300000      -1.92450000
H        1.95950000      -0.84010000      -2.83650000
