18
Properties=species:S:1:pos:R:3 gdb_33070=T pbc="F F F"
C        0.05240000       1.46400000      -0.07260000
C       -0.04380000      -0.01740000      -0.00630000
N       -1.10120000      -0.76240000      -0.07980000
C       -0.63160000      -2.07360000       0.03340000
C       -1.56060000      -3.24160000       0.01720000
C       -2.47310000      -3.28190000       1.25540000
O       -3.36630000      -4.38220000       1.23400000
C        0.71420000      -2.02980000       0.17390000
O        1.10860000      -0.71810000       0.14860000
H        0.67950000       1.78080000      -0.91230000
H       -0.94800000       1.87830000      -0.19860000
H        0.49610000       1.87140000       0.84170000
H       -2.19130000      -3.18690000      -0.88040000
H       -0.99520000      -4.17700000      -0.04040000
H       -1.86350000      -3.40660000       2.15630000
H       -3.00410000      -2.32400000       1.34790000
H       -3.99140000      -4.23910000       0.51630000
H        1.49180000      -2.76520000       0.28780000
