17
Properties=species:S:1:pos:R:3 gdb_36607=T pbc="F F F"
N        0.03450000      -1.12570000       0.01240000
C        0.03040000       0.02860000       0.00290000
C       -0.01690000       1.49230000      -0.01020000
O        1.30230000       1.99620000       0.01520000
C        1.36760000       3.38410000       0.00450000
C        0.85210000       4.42350000       1.03380000
N        1.58900000       5.27990000      -0.00720000
C        2.67170000       4.18270000       0.02690000
C        0.89950000       4.40510000      -1.06510000
H       -0.55560000       1.81870000      -0.91240000
H       -0.59520000       1.83330000       0.86160000
H       -0.21900000       4.63410000       1.08260000
H        1.31660000       4.44280000       2.02220000
H        3.26100000       4.18000000       0.94620000
H        3.30190000       4.16410000      -0.86460000
H        1.40800000       4.40720000      -2.03170000
H       -0.16830000       4.61440000      -1.16580000
