23
Properties=species:S:1:pos:R:3 gdb_58932=T pbc="F F F"
C       -0.30520000       1.41070000       0.08450000
C        0.09810000      -0.07020000      -0.00920000
C        0.91910000      -0.34020000      -1.28000000
C        0.82470000      -0.51410000       1.23660000
C        2.23110000      -0.11940000       1.70390000
C        2.11600000      -1.29330000       2.71330000
C        1.00140000      -0.83640000       3.69380000
C        0.05760000      -0.95400000       2.49980000
C        0.98870000      -1.91270000       1.78880000
H        0.58020000       2.05220000       0.16130000
H       -0.86500000       1.72380000      -0.80300000
H       -0.92860000       1.59630000       0.96450000
H       -0.82350000      -0.66680000      -0.07560000
H        1.84240000       0.24990000      -1.28610000
H        1.19650000      -1.39620000      -1.35610000
H        0.35080000      -0.07190000      -2.17670000
H        2.97630000      -0.32510000       0.93000000
H        2.39790000       0.88400000       2.11540000
H        3.00560000      -1.80490000       3.07530000
H        0.78470000      -1.60030000       4.44630000
H        1.12730000       0.13690000       4.18400000
H       -1.02570000      -0.96980000       2.50080000
H        0.82630000      -2.89010000       1.35680000
