19
Properties=species:S:1:pos:R:3 gdb_62097=T pbc="F F F"
C       -0.07810000       1.51130000      -0.00350000
N       -0.00980000       0.06060000      -0.01970000
C        0.03110000      -0.65360000       1.24790000
C       -1.37440000      -0.99620000       1.78960000
C       -1.29380000      -1.81620000       3.05420000
O       -1.72650000      -1.47730000       4.12630000
C       -0.11250000      -0.69640000      -1.16390000
N       -0.09900000       0.01380000      -2.36060000
O       -0.24790000      -1.91030000      -1.13470000
H        0.91380000       1.98410000      -0.05400000
H       -0.68480000       1.87470000      -0.83620000
H       -0.55780000       1.84480000       0.92090000
H        0.59330000      -1.57760000       1.09550000
H        0.57650000      -0.03680000       1.96950000
H       -1.95980000      -0.09420000       1.98910000
H       -1.87530000      -1.59580000       1.01990000
H       -0.77550000      -2.79610000       2.93160000
H        0.48570000       0.83340000      -2.42340000
H       -0.01150000      -0.60790000      -3.15070000
