21
Properties=species:S:1:pos:R:3 gdb_60498=T pbc="F F F"
C        0.13240000       0.46750000      -0.80200000
C        0.03790000      -0.09790000       0.61150000
O        0.27860000       0.88920000       1.60740000
C       -1.30800000      -0.77490000       0.88490000
O       -1.47220000      -1.85170000      -0.01450000
C       -2.67790000      -2.55710000       0.16710000
C       -2.74130000      -3.66900000      -0.88020000
C       -3.87950000      -4.62940000      -0.62130000
O       -4.74060000      -4.90800000      -1.41430000
H        1.11450000       0.91780000      -0.96870000
H       -0.03180000      -0.31960000      -1.54190000
H       -0.63230000       1.23990000      -0.95960000
H        0.82450000      -0.84740000       0.75600000
H       -0.28630000       1.64550000       1.41360000
H       -1.32930000      -1.12470000       1.92870000
H       -2.12580000      -0.04090000       0.76420000
H       -2.72440000      -2.98490000       1.18380000
H       -3.54270000      -1.88150000       0.06120000
H       -2.83390000      -3.25960000      -1.88860000
H       -1.80200000      -4.23600000      -0.81810000
H       -3.86900000      -5.08970000       0.39530000
