13
Properties=species:S:1:pos:R:3 gdb_124056=T pbc="F F F"
C       -0.01020000       1.49270000       0.12290000
O        1.27510000       2.01580000      -0.34330000
C        2.26830000       1.22210000      -0.76670000
N        2.31260000      -0.05650000      -0.85130000
C        1.12980000      -0.63160000      -0.42730000
C        0.00890000       0.00540000       0.03690000
N       -0.93560000      -0.91220000       0.35130000
N       -0.45360000      -2.10490000       0.10320000
N        0.80440000      -1.94080000      -0.37150000
H       -0.14430000       1.86530000       1.14460000
H       -0.77910000       1.95260000      -0.50800000
H        3.12370000       1.82250000      -1.06360000
H        1.35650000      -2.74470000      -0.62610000
