15
Properties=species:S:1:pos:R:3 gdb_7315=T pbc="F F F"
N       -0.03900000       1.32140000       0.06750000
C        0.02530000      -0.02500000      -0.04460000
O        1.06940000      -0.64520000      -0.16100000
C       -1.30840000      -0.79310000      -0.00220000
O       -1.06320000      -2.12340000      -0.36470000
C       -1.93690000      -0.71910000       1.41120000
C       -3.23900000      -1.49160000       1.47490000
O       -4.28330000      -1.01720000       1.84440000
H        0.81540000       1.85340000       0.03070000
H       -0.91450000       1.81420000       0.09640000
H       -2.00190000      -0.33670000      -0.72540000
H       -0.09180000      -2.19300000      -0.39170000
H       -1.22640000      -1.17630000       2.11250000
H       -2.12990000       0.31140000       1.72290000
H       -3.16300000      -2.54730000       1.14350000
