13
Properties=species:S:1:pos:R:3 gdb_21525=T pbc="F F F"
N       -0.14490000       1.34160000      -0.13220000
C       -0.08160000      -0.01270000      -0.05370000
C       -1.11820000      -0.92990000       0.02900000
C       -2.58470000      -0.65790000       0.01920000
O       -2.92470000       0.33470000      -0.95820000
N       -0.52510000      -2.15260000       0.11020000
N        0.71760000      -2.11050000       0.09970000
O        1.07560000      -0.62790000      -0.01910000
H        0.68380000       1.82010000      -0.44830000
H       -1.02680000       1.69300000      -0.47980000
H       -3.13150000      -1.59650000      -0.13630000
H       -2.92830000      -0.23100000       0.96840000
H       -2.70960000      -0.03270000      -1.82310000
