19
Properties=species:S:1:pos:R:3 gdb_112784=T pbc="F F F"
C       -0.02960000       1.37730000      -0.21310000
O       -0.10070000       0.07540000       0.33040000
C       -1.34810000      -0.52630000       0.17590000
C       -1.60450000      -1.22280000      -1.19110000
N       -1.18520000      -2.50210000      -0.59040000
C       -1.87480000      -3.72210000      -0.94460000
C       -1.35390000      -1.96580000       0.77010000
C       -0.31830000      -2.33040000       1.73580000
N        0.47600000      -2.64050000       2.51520000
H        0.97410000       1.75340000      -0.00690000
H       -0.19380000       1.38040000      -1.30040000
H       -0.76810000       2.04770000       0.25270000
H       -2.15260000       0.12780000       0.53630000
H       -2.66810000      -1.19340000      -1.47810000
H       -0.99140000      -0.89570000      -2.03670000
H       -1.69430000      -3.95000000      -1.99970000
H       -1.48260000      -4.55300000      -0.34990000
H       -2.96860000      -3.66600000      -0.78570000
H       -2.33780000      -2.19440000       1.21380000
