19
Properties=species:S:1:pos:R:3 gdb_70186=T pbc="F F F"
C       -0.25430000       1.53840000       0.08340000
C        0.01520000       0.05680000       0.07330000
C       -0.79310000      -0.87200000       0.94760000
C        0.68540000      -0.62770000       1.23050000
C        1.70270000      -1.70070000       0.88730000
C        1.36420000      -2.46660000      -0.38350000
O        1.68020000      -3.61820000      -0.56200000
C        0.58530000      -1.70450000      -1.46000000
O        0.41750000      -0.32460000      -1.22490000
H        0.63200000       2.08890000      -0.24760000
H       -1.07930000       1.78430000      -0.59260000
H       -0.51720000       1.87620000       1.08920000
H       -1.52320000      -0.42330000       1.61220000
H       -1.08750000      -1.84860000       0.57870000
H        0.92890000      -0.02920000       2.10340000
H        2.68060000      -1.22790000       0.71160000
H        1.84370000      -2.42840000       1.69250000
H        1.13050000      -1.79810000      -2.40410000
H       -0.37950000      -2.21880000      -1.59640000
