17
Properties=species:S:1:pos:R:3 gdb_38589=T pbc="F F F"
C       -0.11250000       1.55100000       0.12530000
C        1.39180000       1.25860000       0.06030000
O        1.15400000       0.04590000       0.93030000
C        0.11270000       0.03330000      -0.12380000
C       -0.87730000      -0.93680000      -0.73640000
O       -1.86030000      -0.19180000      -1.46210000
C       -0.73400000      -0.69220000      -2.19790000
C        0.38100000       0.35610000      -2.49270000
C        1.17930000       0.31520000      -1.17290000
H       -0.49250000       1.80090000       1.11590000
H       -0.56600000       2.14510000      -0.66720000
H        2.24520000       1.87530000       0.34220000
H       -1.19350000      -1.87370000      -0.28800000
H       -0.98280000      -1.44100000      -2.94670000
H        0.98140000       0.05580000      -3.35500000
H       -0.07890000       1.32030000      -2.72360000
H        1.93670000      -0.47270000      -1.19220000
