18
Properties=species:S:1:pos:R:3 gdb_111724=T pbc="F F F"
O        0.20650000       0.45530000       1.00140000
C       -0.12130000       0.18350000      -0.35220000
C       -1.46190000      -0.50810000      -0.36260000
C       -1.92350000      -1.51130000      -1.37490000
C       -0.79810000      -2.43990000      -1.84960000
C       -0.50970000      -2.85140000      -0.37130000
C       -1.66140000      -1.94030000       0.09390000
C       -2.60620000      -2.28110000       1.10530000
N       -3.37210000      -2.57720000       1.92190000
H        1.02090000       0.96690000       1.01840000
H       -0.20100000       1.11000000      -0.94280000
H        0.64880000      -0.43720000      -0.83090000
H       -2.26680000       0.13400000      -0.01370000
H       -2.88630000      -1.40720000      -1.85990000
H       -1.18160000      -3.27780000      -2.43420000
H        0.01570000      -1.97270000      -2.41100000
H       -0.71730000      -3.90550000      -0.18530000
H        0.47160000      -2.60660000       0.04210000
