20
Properties=species:S:1:pos:R:3 gdb_34034=T pbc="F F F"
N        0.02620000      -1.13800000      -0.01150000
C        0.01360000       0.01930000      -0.02720000
C       -0.01290000       1.46010000      -0.03410000
C        0.49150000       2.13320000      -1.30000000
C        1.34830000       2.16900000      -0.06640000
C        1.55140000       3.46940000       0.71240000
C        0.42250000       3.78150000       1.70860000
C       -0.95900000       3.55480000       1.08750000
C       -1.16960000       2.07020000       0.76010000
H        0.78870000       1.49560000      -2.12420000
H       -0.01250000       3.04770000      -1.59620000
H        2.20230000       1.50060000      -0.08160000
H        2.50470000       3.41780000       1.24720000
H        1.64620000       4.29980000       0.00140000
H        0.52220000       3.13580000       2.59080000
H        0.52340000       4.81290000       2.06180000
H       -1.74790000       3.87640000       1.77510000
H       -1.06980000       4.17070000       0.18560000
H       -2.10710000       1.91880000       0.21350000
H       -1.26350000       1.51530000       1.70110000
