23
Properties=species:S:1:pos:R:3 gdb_80544=T pbc="F F F"
C       -0.32410000       1.64330000       0.72990000
C       -0.08920000       0.15710000       0.49180000
C        0.94290000      -0.37220000      -0.55300000
C        2.27630000       0.21750000      -0.05170000
C        2.13290000      -0.11110000       1.47790000
O        2.16610000       1.01000000       2.34830000
C        0.73920000      -0.75630000       1.45570000
C        0.91710000      -1.72510000       0.23560000
C       -0.18810000      -2.73140000      -0.06110000
H        0.59040000       2.18710000       0.96380000
H       -0.79010000       2.09700000      -0.15320000
H       -1.00980000       1.78950000       1.57210000
H       -1.05770000      -0.31340000       0.30800000
H        0.74520000      -0.32730000      -1.62620000
H        3.14380000      -0.26880000      -0.50860000
H        2.36260000       1.29540000      -0.21540000
H        2.88750000      -0.84410000       1.79800000
H        3.05100000       1.38620000       2.31240000
H        0.34690000      -1.09630000       2.41540000
H        1.87660000      -2.25770000       0.22940000
H       -1.18920000      -2.29270000      -0.06420000
H       -0.02910000      -3.19410000      -1.04160000
H       -0.18440000      -3.53460000       0.68410000
