22
Properties=species:S:1:pos:R:3 gdb_16528=T pbc="F F F"
C        0.26260000       1.63660000       0.13860000
C        0.10520000       0.12480000       0.01270000
C        1.05670000      -0.65890000      -0.96970000
C        1.97430000       0.09260000      -1.92620000
C        1.65160000      -1.43690000       0.23520000
C        2.78480000      -0.74300000       1.04900000
C        1.73690000      -0.23190000       2.08240000
C        0.59440000      -0.77950000       1.19360000
H        1.29370000       1.94070000       0.34200000
H       -0.04840000       2.13800000      -0.78450000
H       -0.36090000       2.02630000       0.95130000
H       -0.94380000      -0.08440000      -0.22020000
H        0.44910000      -1.35310000      -1.56120000
H        2.60090000       0.83150000      -1.41820000
H        2.64300000      -0.60260000      -2.44670000
H        1.39550000       0.62520000      -2.68910000
H        1.75650000      -2.51690000       0.11470000
H        3.52520000      -1.43230000       1.46190000
H        3.32790000       0.03910000       0.51200000
H        1.80200000      -0.76450000       3.03520000
H        1.73170000       0.83950000       2.30010000
H       -0.19030000      -1.34880000       1.69520000
