14
Properties=species:S:1:pos:R:3 gdb_99447=T pbc="F F F"
O        0.08370000       1.41220000       0.03130000
C        0.06010000       0.01110000       0.04130000
C       -1.40580000      -0.54270000       0.02610000
C       -2.08580000      -0.04640000      -1.18060000
N       -2.56610000       0.39370000      -2.13490000
C       -1.43440000      -1.99680000       0.11250000
C       -1.40910000      -3.20140000       0.20960000
C       -1.38650000      -4.55770000       0.31300000
C       -1.36500000      -5.76080000       0.40660000
H       -0.19560000       1.71870000      -0.83930000
H        0.61120000      -0.43420000      -0.79710000
H        0.52670000      -0.31560000       0.97350000
H       -1.91880000      -0.10560000       0.89330000
H       -1.34860000      -6.81980000       0.48580000
