15
Properties=species:S:1:pos:R:3 gdb_1700=T pbc="F F F"
C       -0.22570000       1.64750000      -0.03060000
C        0.01920000       0.14260000      -0.05230000
C        0.83650000      -0.41470000      -1.25850000
C        1.85720000      -0.84830000      -0.19220000
O        1.09510000      -0.22420000       0.86260000
C       -1.20540000      -0.60110000       0.23780000
C       -2.21660000      -1.21000000       0.46590000
H        0.70510000       2.17820000      -0.24890000
H       -0.98010000       1.92410000      -0.77350000
H       -0.58190000       1.95500000       0.95630000
H        0.35450000      -1.21350000      -1.82060000
H        1.18210000       0.36170000      -1.94320000
H        1.94260000      -1.93180000      -0.04590000
H        2.86250000      -0.42030000      -0.27520000
H       -3.10650000      -1.75080000       0.67520000
