16
Properties=species:S:1:pos:R:3 gdb_127019=T pbc="F F F"
C        0.00890000       1.45850000       0.06690000
C        0.00120000      -0.05500000       0.00700000
O        0.72090000      -0.53100000       1.17000000
C        0.84030000      -1.83190000       1.32070000
N        1.45540000      -2.41950000       2.30390000
C        1.27860000      -3.74100000       1.96750000
N        1.83470000      -4.73830000       2.72330000
N        0.59530000      -3.97690000       0.86710000
O        0.30060000      -2.64820000       0.41600000
H        1.03230000       1.84260000       0.05280000
H       -0.52580000       1.86290000      -0.79720000
H       -0.48220000       1.81400000       0.97660000
H       -1.01520000      -0.46060000       0.03100000
H        0.49760000      -0.43160000      -0.89290000
H        1.97940000      -4.48980000       3.68990000
H        1.43360000      -5.65360000       2.58450000
