13
Properties=species:S:1:pos:R:3 gdb_609=T pbc="F F F"
C        0.30090000       1.41560000       0.11620000
C       -0.01320000      -0.04720000      -0.09320000
C        0.72520000      -0.85360000      -1.12700000
N        0.94340000      -1.07720000       0.28250000
C        2.15160000      -0.89560000       0.92750000
O        3.22980000      -1.20140000       0.47850000
H        1.34780000       1.63370000      -0.11730000
H       -0.33000000       2.03190000      -0.53240000
H        0.11020000       1.72040000       1.15030000
H       -1.04800000      -0.32510000       0.10250000
H        0.21450000      -1.64780000      -1.66430000
H        1.52810000      -0.36560000      -1.67460000
H        2.01190000      -0.49970000       1.95200000
