23
Properties=species:S:1:pos:R:3 gdb_79256=T pbc="F F F"
C       -0.14390000       1.56190000      -0.03360000
C        0.02640000       0.04300000       0.00030000
C        0.91700000      -0.52650000      -1.10200000
C        2.32620000      -0.62320000      -0.54230000
C        2.27390000      -0.12430000       0.89570000
C        0.81660000      -0.55820000       1.20900000
C        0.28890000      -0.26110000       2.59940000
C        0.87010000      -2.05420000       0.79400000
C        1.44380000      -1.85720000      -0.60390000
H        0.81700000       2.08510000      -0.03530000
H       -0.67820000       1.86470000      -0.94080000
H       -0.72490000       1.92120000       0.82240000
H       -0.97070000      -0.41760000      -0.03330000
H        0.73160000      -0.33880000      -2.15230000
H        3.19950000      -0.51530000      -1.17230000
H        2.99480000      -0.63080000       1.54790000
H        2.43120000       0.95430000       0.99270000
H        0.30640000       0.81210000       2.81710000
H       -0.74520000      -0.60620000       2.71360000
H        0.89050000      -0.76180000       3.36620000
H        1.52250000      -2.64280000       1.44940000
H       -0.12290000      -2.51820000       0.79070000
H        1.65380000      -2.67910000      -1.27590000
