21
Properties=species:S:1:pos:R:3 gdb_126793=T pbc="F F F"
C       -0.12790000       1.59140000      -0.10410000
C        0.04900000       0.07340000      -0.02300000
N        0.76360000      -0.47050000      -1.16470000
N        0.08700000      -0.68430000      -2.31310000
C        1.01130000      -1.10480000      -3.17060000
C        2.29600000      -1.16300000      -2.59040000
C        3.57520000      -1.60560000      -3.23490000
C        2.09630000      -0.73780000      -1.28440000
C        3.06850000      -0.58070000      -0.16020000
H        0.83910000       2.10360000      -0.10940000
H       -0.66190000       1.85630000      -1.02000000
H       -0.70350000       1.95280000       0.75380000
H        0.59240000      -0.20830000       0.88330000
H       -0.92550000      -0.42050000       0.00540000
H        0.72820000      -1.35940000      -4.18270000
H        4.41120000      -0.94030000      -2.99220000
H        3.86950000      -2.61780000      -2.93070000
H        3.47390000      -1.61400000      -4.32410000
H        3.06940000       0.43440000       0.25340000
H        2.86150000      -1.27060000       0.66710000
H        4.07960000      -0.79250000      -0.51500000
