14
Properties=species:S:1:pos:R:3 gdb_48067=T pbc="F F F"
O       -0.69210000       1.23360000       0.44010000
C        0.47310000       1.02770000       0.64550000
C        1.56360000       1.95350000       0.09350000
O        2.54930000       1.43050000      -0.37860000
C        1.27980000       3.42580000      -0.01370000
C        2.42820000       4.27960000      -0.49040000
N        1.30650000       4.02990000      -1.36990000
C        0.33590000       4.04390000       0.96440000
O        0.16760000       3.60330000       2.07330000
H        0.86550000       0.10390000       1.11490000
H        2.50570000       5.29520000      -0.11300000
H        3.36210000       3.74900000      -0.65020000
H        1.54550000       3.30850000      -2.04830000
H       -0.15530000       4.96980000       0.59930000
