25
Properties=species:S:1:pos:R:3 gdb_78112=T pbc="F F F"
C       -0.14960000       1.42970000      -0.02670000
C        0.01600000      -0.07150000       0.09010000
C        1.38270000      -0.64860000      -0.18980000
C        0.80680000      -0.65790000       1.23360000
C        1.20640000       0.08510000       2.47790000
C        0.68480000      -2.19060000       1.17030000
C        1.37050000      -2.18860000      -0.24670000
C        0.59590000      -2.84060000      -1.39200000
C        2.79250000      -2.74980000      -0.17560000
H        0.76920000       1.96360000       0.23490000
H       -0.40580000       1.70930000      -1.05440000
H       -0.94710000       1.80020000       0.62720000
H       -0.85860000      -0.62690000      -0.24990000
H        2.17130000      -0.02510000      -0.60240000
H        1.38090000       1.14770000       2.28750000
H        0.42500000       0.01340000       3.24550000
H        2.12500000      -0.32940000       2.90950000
H        1.28510000      -2.70970000       1.92320000
H       -0.33790000      -2.58260000       1.21270000
H       -0.42120000      -2.44700000      -1.47640000
H        1.09930000      -2.67130000      -2.35120000
H        0.52040000      -3.92450000      -1.24470000
H        2.77970000      -3.83230000      -0.00390000
H        3.33430000      -2.56570000      -1.11110000
H        3.36200000      -2.28480000       0.63590000
