14
Properties=species:S:1:pos:R:3 gdb_66069=T pbc="F F F"
O        0.07710000       1.46510000      -0.25910000
C        0.02110000       0.10670000      -0.06730000
C       -0.03390000      -0.41480000       1.39240000
O       -1.14700000      -1.28230000       1.07810000
C       -1.37640000      -0.63230000      -0.18050000
C       -2.52800000       0.27080000      -0.17550000
N       -3.44480000       0.97370000      -0.17940000
C        1.05720000      -0.61000000      -0.91090000
O        1.77470000      -0.00230000      -1.66440000
H        0.71800000       1.61770000      -0.97370000
H        0.82480000      -0.97400000       1.77650000
H       -0.30950000       0.38550000       2.08780000
H       -1.49200000      -1.35670000      -0.99490000
H        1.10960000      -1.71060000      -0.79580000
