21
Properties=species:S:1:pos:R:3 gdb_110036=T pbc="F F F"
C        0.26990000       1.28980000      -0.28650000
O        0.06360000      -0.09420000      -0.06300000
C        0.54490000      -0.55990000       1.19330000
C        0.04090000      -1.99040000       1.41390000
C       -1.44660000      -2.20610000       1.14790000
C        0.99050000      -2.84320000       0.53630000
C        2.37010000      -2.19050000       0.71890000
C        2.07690000      -0.72570000       1.05590000
O        2.88560000       0.16310000       1.15130000
H        1.33360000       1.55510000      -0.28140000
H       -0.15750000       1.51580000      -1.26630000
H       -0.24270000       1.89330000       0.47780000
H        0.27700000       0.14200000       1.99490000
H        0.25510000      -2.22800000       2.46630000
H       -1.70250000      -1.91750000       0.12580000
H       -1.71370000      -3.25870000       1.28770000
H       -2.06410000      -1.61180000       1.82960000
H        0.97390000      -3.89930000       0.81780000
H        0.67400000      -2.77390000      -0.50950000
H        2.91080000      -2.61750000       1.57360000
H        3.03800000      -2.26530000      -0.14310000
