23
Properties=species:S:1:pos:R:3 gdb_95769=T pbc="F F F"
C        0.14540000       1.56420000      -0.12080000
C        0.04730000       0.04460000       0.03800000
O        0.56440000      -0.49410000      -1.16810000
C        0.83560000      -1.87830000      -1.09030000
C        1.94870000      -2.13780000      -0.08350000
C        1.64790000      -1.45470000       1.23330000
C        2.43070000      -1.98910000       2.40420000
C        0.74010000      -0.46970000       1.29380000
C        0.28110000       0.19950000       2.56700000
H        1.19390000       1.87600000      -0.13930000
H       -0.31830000       1.85590000      -1.06670000
H       -0.36510000       2.08770000       0.69080000
H       -1.02550000      -0.22390000       0.11810000
H       -0.07140000      -2.43470000      -0.79950000
H        1.11680000      -2.19590000      -2.09890000
H        2.06120000      -3.21870000       0.07860000
H        2.90930000      -1.78770000      -0.48730000
H        3.50440000      -1.97770000       2.17470000
H        2.28730000      -1.42170000       3.32440000
H        2.17220000      -3.03750000       2.60540000
H        0.51970000      -0.38240000       3.45830000
H        0.72180000       1.19630000       2.69110000
H       -0.80700000       0.34010000       2.55210000
