17
Properties=species:S:1:pos:R:3 gdb_124676=T pbc="F F F"
C        0.09450000       1.48340000      -0.17190000
C        0.03210000      -0.02020000       0.08550000
C        0.46710000      -0.85010000      -1.12640000
O        0.57890000      -0.41070000      -2.23920000
N        0.78760000      -0.44700000       1.25300000
C        2.11760000      -0.29440000       1.49210000
C        2.37910000      -0.90630000       2.69940000
C        1.13020000      -1.41180000       3.11360000
N        0.16880000      -1.13740000       2.23570000
H        1.11940000       1.81080000      -0.36580000
H       -0.49910000       1.72570000      -1.05550000
H       -0.29490000       2.03220000       0.68810000
H       -0.99790000      -0.32460000       0.30880000
H        0.66850000      -1.91720000      -0.88700000
H        2.75840000       0.23270000       0.80280000
H        3.32960000      -0.97410000       3.20300000
H        0.88990000      -1.95960000       4.01290000
