15
Properties=species:S:1:pos:R:3 gdb_99437=T pbc="F F F"
C       -0.01210000       1.47330000      -0.22250000
N       -0.05030000       0.07930000       0.21710000
C       -1.36020000      -0.55190000       0.08690000
C       -1.87760000      -0.56480000      -1.31300000
N       -2.22420000      -0.52320000      -2.41470000
C       -1.34490000      -1.91210000       0.62360000
C       -1.33240000      -3.03480000       1.07000000
C       -1.31370000      -4.29950000       1.57100000
C       -1.29740000      -5.42130000       2.01590000
H        1.00650000       1.84800000      -0.09910000
H       -0.31960000       1.62680000      -1.26820000
H       -0.66890000       2.07130000       0.41870000
H        0.63710000      -0.47490000      -0.28280000
H       -2.06970000       0.05040000       0.67360000
H       -1.28330000      -6.40910000       2.40590000
