16
Properties=species:S:1:pos:R:3 gdb_36476=T pbc="F F F"
N       -0.09790000      -1.12630000      -0.25590000
C       -0.09340000       0.02860000      -0.21780000
C       -0.05210000       1.48830000      -0.16600000
C        1.36280000       1.99650000       0.14240000
C        2.35710000       1.87900000      -1.04250000
N        2.05040000       3.28530000      -1.39750000
C        1.53830000       3.54210000      -0.03750000
C        0.35440000       4.39900000       0.04600000
N       -0.59190000       5.05700000       0.13160000
H       -0.39310000       1.88950000      -1.12660000
H       -0.75940000       1.83860000       0.59380000
H        1.70700000       1.60740000       1.10030000
H        3.38560000       1.70620000      -0.70000000
H        2.11550000       1.15270000      -1.82400000
H        2.82750000       3.86640000      -1.69100000
H        2.28700000       3.92390000       0.67110000
