20
Properties=species:S:1:pos:R:3 gdb_87753=T pbc="F F F"
C        0.06990000       1.53950000      -0.25010000
C        0.07610000       0.03520000      -0.09410000
C        1.38340000      -0.72900000      -0.05830000
C        0.54410000      -0.60830000       1.17720000
C        0.91520000       0.08410000       2.50300000
N        0.25670000      -1.03460000       3.18770000
C       -0.13340000      -1.74290000       1.96610000
C       -0.07830000      -1.27140000       4.47270000
O       -0.73040000      -2.22410000       4.85070000
H        0.92120000       1.99480000       0.26700000
H        0.13490000       1.82530000      -1.30530000
H       -0.84450000       1.98270000       0.15970000
H       -0.74870000      -0.47400000      -0.58850000
H        1.43710000      -1.69640000      -0.54770000
H        2.30490000      -0.15500000      -0.10360000
H        1.98890000       0.16650000       2.71050000
H        0.44100000       1.05800000       2.67680000
H       -1.21850000      -1.83640000       1.84330000
H        0.32260000      -2.73460000       1.86910000
H        0.31940000      -0.49020000       5.15420000
