19
Properties=species:S:1:pos:R:3 gdb_71602=T pbc="F F F"
C        0.00700000       1.51640000      -0.03480000
C        0.01330000       0.00660000       0.01020000
C        0.78970000      -0.73320000      -1.08110000
O        0.57510000      -2.10540000      -0.71980000
C       -0.24180000      -1.98350000       0.42210000
C        0.23820000      -0.81950000       1.33480000
C       -1.22630000      -0.56030000       1.75840000
C       -1.28740000      -0.83770000       0.23530000
O       -2.35970000      -0.77040000      -0.63330000
H        1.02760000       1.91260000       0.01150000
H       -0.44550000       1.87190000      -0.96690000
H       -0.55690000       1.95260000       0.79400000
H        0.39090000      -0.54000000      -2.08500000
H        1.86320000      -0.50440000      -1.07520000
H       -0.50980000      -2.95880000       0.82830000
H        1.12600000      -0.81120000       1.96300000
H       -1.68070000      -1.30770000       2.41620000
H       -1.47620000       0.44910000       2.08830000
H       -2.96410000      -1.49530000      -0.44120000
