19
Properties=species:S:1:pos:R:3 gdb_92162=T pbc="F F F"
C       -0.00410000       1.46710000      -0.00350000
C        0.00150000      -0.03860000       0.05810000
C       -0.29920000      -0.81310000      -1.21290000
O        0.09080000      -2.18530000      -1.07510000
C       -0.70110000      -2.25390000       0.17230000
C        0.26300000      -2.10310000       1.33750000
C        0.98100000      -0.76370000       1.00100000
O        2.25910000      -0.94780000       0.41540000
C       -1.28090000      -0.84600000      -0.08670000
H        0.99580000       1.84060000      -0.24810000
H       -0.69720000       1.83790000      -0.76650000
H       -0.30270000       1.90580000       0.95550000
H       -0.32710000      -0.38920000      -2.21040000
H       -1.36550000      -3.11890000       0.16650000
H       -0.29700000      -2.03450000       2.27750000
H        0.98150000      -2.92310000       1.41880000
H        1.15840000      -0.16760000       1.90110000
H        2.10940000      -1.51280000      -0.35390000
H       -2.29870000      -0.49480000       0.01400000
