16
Properties=species:S:1:pos:R:3 gdb_47752=T pbc="F F F"
N        0.09550000       1.09830000      -1.11280000
C        0.06220000       0.05840000      -0.37870000
N        1.07210000      -0.55580000       0.31990000
C        0.73750000      -1.57220000       1.30710000
C       -0.14360000      -2.64020000       0.64750000
O       -1.09150000      -2.09850000      -0.27870000
C       -1.26450000      -0.69940000      -0.25680000
C       -2.00850000      -0.25470000       0.94600000
N       -2.57650000       0.06070000       1.90170000
H        1.01910000       1.53670000      -1.11060000
H        1.93800000      -0.04980000       0.42490000
H        1.65780000      -2.04110000       1.66350000
H        0.22900000      -1.14020000       2.17930000
H        0.47510000      -3.33270000       0.06770000
H       -0.67410000      -3.20860000       1.42110000
H       -1.85810000      -0.44240000      -1.13600000
