18
Properties=species:S:1:pos:R:3 gdb_31808=T pbc="F F F"
C        0.04110000       1.52900000      -0.20180000
C       -0.01260000       0.01760000       0.07170000
C       -1.41680000      -0.52970000       0.03330000
C       -1.85780000      -1.40980000      -0.95150000
N       -3.10150000      -1.89290000      -1.00230000
C       -3.94150000      -1.48280000      -0.05060000
N       -5.24830000      -1.92080000      -0.11920000
C       -3.50670000      -0.59470000       0.95510000
N       -2.26970000      -0.13200000       0.99500000
H        1.06500000       1.90600000      -0.11760000
H       -0.32520000       1.76070000      -1.20730000
H       -0.58480000       2.06510000       0.51690000
H        0.60500000      -0.51820000      -0.65780000
H        0.41580000      -0.18280000       1.06090000
H       -1.17900000      -1.74840000      -1.73150000
H       -5.38000000      -2.72900000      -0.70910000
H       -5.76720000      -1.94740000       0.74440000
H       -4.19030000      -0.26620000       1.73650000
