16
Properties=species:S:1:pos:R:3 gdb_48302=T pbc="F F F"
O       -0.66430000       0.95250000      -0.49430000
C        0.22860000       1.13240000       0.29090000
C        1.43500000       2.03310000       0.01400000
C        1.33840000       2.81840000      -1.29550000
C        1.47940000       1.92600000      -2.54510000
C        1.47550000       2.70870000      -3.77870000
N        1.47480000       3.34520000      -4.74290000
C        1.64640000       2.92930000       1.23800000
O        1.76610000       2.50010000       2.35430000
H        0.24160000       0.66090000       1.29350000
H        2.30430000       1.35610000       0.01060000
H        0.37610000       3.33810000      -1.33910000
H        2.11880000       3.58680000      -1.31250000
H        2.41450000       1.35420000      -2.50330000
H        0.65680000       1.20650000      -2.57820000
H        1.66830000       4.02070000       1.02430000
