19
Properties=species:S:1:pos:R:3 gdb_94726=T pbc="F F F"
C       -0.16860000       1.58930000       0.13240000
C        0.09910000       0.10650000       0.02260000
C       -1.07790000      -0.87830000       0.23410000
O       -0.33570000      -1.61800000       1.22810000
C        0.77330000      -0.69840000       1.16730000
C        2.02580000      -1.29350000       0.52640000
O        2.34710000      -2.54370000       1.09020000
C        1.62200000      -1.32510000      -0.96140000
O        0.85810000      -0.14110000      -1.15880000
H        0.77160000       2.14750000       0.16400000
H       -0.73780000       1.93480000      -0.73660000
H       -0.74420000       1.81610000       1.03410000
H       -1.98950000      -0.43470000       0.65350000
H       -1.33450000      -1.48640000      -0.64100000
H        0.95540000      -0.21250000       2.13070000
H        2.84110000      -0.56440000       0.66220000
H        3.19530000      -2.82550000       0.73450000
H        2.46590000      -1.29710000      -1.65620000
H        1.03450000      -2.23550000      -1.15000000
