18
Properties=species:S:1:pos:R:3 gdb_24273=T pbc="F F F"
C       -0.05710000       1.45790000       0.12460000
C        1.28740000       0.76880000       0.02170000
C        2.04080000       0.41950000       1.31350000
C        1.07720000      -0.48750000       2.03180000
C        0.87530000      -1.11700000       3.23890000
C       -0.37380000      -1.80020000       3.14260000
C       -0.90140000      -1.55420000       1.89140000
N        0.00050000      -0.76840000       1.22360000
C        0.01110000      -0.04380000      -0.01370000
H       -0.37270000       1.85410000       1.08420000
H       -0.38490000       2.02920000      -0.73760000
H        1.86170000       0.91710000      -0.88450000
H        2.98600000      -0.08550000       1.07760000
H        2.29600000       1.31190000       1.89610000
H        1.54070000      -1.10790000       4.08860000
H       -0.82810000      -2.41580000       3.90460000
H       -1.82170000      -1.87420000       1.43030000
H       -0.35680000      -0.55980000      -0.89230000
