19
Properties=species:S:1:pos:R:3 gdb_58922=T pbc="F F F"
C       -0.01820000       1.55840000       0.08510000
C        0.03120000       0.02340000       0.04360000
C        0.64400000      -0.50070000      -1.26350000
C        0.77540000      -0.50990000       1.23140000
O        0.31810000      -0.17050000       2.58200000
C        1.47550000      -1.00470000       2.84720000
C        1.23130000      -1.95730000       1.63940000
O        2.57540000      -1.81150000       1.10020000
C        2.29810000      -0.48470000       1.63100000
H        0.98570000       1.98310000      -0.02830000
H       -0.63890000       1.94390000      -0.72940000
H       -0.43020000       1.91170000       1.03350000
H       -0.99700000      -0.35580000       0.12660000
H        1.67650000      -0.15650000      -1.38020000
H        0.65340000      -1.59350000      -1.29780000
H        0.06880000      -0.13700000      -2.12030000
H        1.76110000      -1.20580000       3.87880000
H        0.72950000      -2.92210000       1.56760000
H        3.06000000       0.29030000       1.55170000
