21
Properties=species:S:1:pos:R:3 gdb_95537=T pbc="F F F"
C       -0.05510000       1.58110000      -0.05390000
C        0.02720000       0.05080000      -0.03140000
C        0.66360000      -0.52060000      -1.31010000
C        0.61680000      -2.05440000      -1.33310000
C        0.96380000      -2.65910000       0.00010000
C        1.01530000      -1.96870000       1.13940000
C        0.74600000      -0.48230000       1.23470000
C        2.07980000       0.20860000       1.50060000
O        2.40060000       0.69280000       2.55530000
H        0.93520000       2.03920000      -0.15720000
H       -0.66440000       1.92420000      -0.89620000
H       -0.50330000       1.96920000       0.86670000
H       -0.99760000      -0.34170000       0.02430000
H        0.14970000      -0.11570000      -2.18920000
H        1.70590000      -0.18600000      -1.38480000
H       -0.38590000      -2.39800000      -1.62900000
H        1.29280000      -2.44340000      -2.10480000
H        1.15600000      -3.72960000       0.01840000
H        1.27760000      -2.46760000       2.06870000
H        0.13100000      -0.27930000       2.11920000
H        2.78350000       0.20280000       0.63710000
