16
Properties=species:S:1:pos:R:3 gdb_124136=T pbc="F F F"
C       -0.06600000       1.47710000       0.02590000
C       -0.01630000       0.02490000      -0.00810000
C        0.03550000      -1.18070000      -0.03720000
C        0.09020000      -2.58570000      -0.07080000
C        1.13640000      -3.48770000      -0.17820000
N        0.63730000      -4.74600000      -0.16190000
N       -0.66210000      -4.68680000      -0.05050000
N       -1.01170000      -3.38960000       0.00600000
C       -2.40270000      -3.00650000       0.13220000
H        0.57100000       1.87630000       0.82300000
H        0.27510000       1.90840000      -0.92180000
H       -1.08650000       1.83190000       0.20570000
H        2.19160000      -3.28640000      -0.26360000
H       -2.56080000      -2.43730000       1.05180000
H       -2.71010000      -2.39630000      -0.72100000
H       -2.98720000      -3.92550000       0.16020000
