20
Properties=species:S:1:pos:R:3 gdb_12552=T pbc="F F F"
C       -0.41010000       1.45950000       0.00330000
C       -0.00010000      -0.02770000      -0.01030000
C        0.63140000      -0.41450000      -1.35410000
O        1.82360000       0.27880000      -1.67010000
C        2.98910000      -0.25760000      -1.07620000
C        3.20700000       0.15980000       0.37920000
C        2.15650000      -0.27380000       1.37300000
C        0.83490000      -0.35880000       1.20800000
H        0.46500000       2.09430000      -0.15750000
H       -1.13400000       1.67020000      -0.79170000
H       -0.86430000       1.73610000       0.95920000
H       -0.92040000      -0.62570000       0.05630000
H        0.81100000      -1.50100000      -1.37900000
H       -0.07480000      -0.17240000      -2.15730000
H        2.97480000      -1.35740000      -1.14740000
H        3.82800000       0.10560000      -1.68030000
H        4.18090000      -0.23900000       0.69080000
H        3.31040000       1.25430000       0.41550000
H        2.54170000      -0.50420000       2.36490000
H        0.25140000      -0.64560000       2.08180000
