15
Properties=species:S:1:pos:R:3 gdb_26053=T pbc="F F F"
O        0.18100000       1.47200000       0.05430000
C        0.11700000       0.04120000       0.01610000
C        0.62250000      -0.50000000      -1.24400000
C        1.05360000      -0.88790000      -2.29540000
C        0.82730000      -0.53870000       1.21980000
N        1.24080000      -1.77160000       1.39740000
C        1.75030000      -1.80110000       2.67610000
C        1.63980000      -0.57080000       3.26960000
N        1.04200000       0.23020000       2.32350000
H        1.02520000       1.72740000      -0.33550000
H       -0.95470000      -0.18680000       0.09430000
H        1.43150000      -1.25220000      -3.21890000
H        2.17110000      -2.70400000       3.09170000
H        1.92690000      -0.19620000       4.23780000
H        0.80510000       1.20630000       2.38820000
