23
Properties=species:S:1:pos:R:3 gdb_87450=T pbc="F F F"
C       -0.06490000       1.53210000      -0.03990000
C        0.00870000       0.02110000       0.02180000
C        1.34740000      -0.69010000      -0.20470000
C        0.69690000      -0.68610000       1.13690000
C        1.18070000      -0.24290000       2.53000000
C       -0.20400000      -0.71570000       3.06470000
C        0.25650000      -1.83700000       2.07420000
C       -0.47610000      -3.09700000       1.70150000
C        1.67270000      -1.70780000       2.72740000
H        0.82840000       1.98770000       0.40010000
H       -0.14200000       1.88530000      -1.07450000
H       -0.93350000       1.91470000       0.50790000
H       -0.85440000      -0.48710000      -0.40590000
H        1.34740000      -1.60400000      -0.79230000
H        2.22170000      -0.06420000      -0.36290000
H        1.71280000       0.67210000       2.79130000
H       -0.24680000      -0.99370000       4.12250000
H       -1.07570000      -0.12800000       2.76580000
H       -1.45110000      -2.87050000       1.25520000
H        0.09690000      -3.68690000       0.97720000
H       -0.65030000      -3.72630000       2.58100000
H        2.52230000      -2.02740000       2.11860000
H        1.76090000      -2.05410000       3.76180000
