21
Properties=species:S:1:pos:R:3 gdb_74288=T pbc="F F F"
C        0.04040000       1.53400000       0.04950000
C        0.03120000       0.03820000       0.01680000
C       -0.35720000      -0.74430000      -0.99010000
C       -0.15690000      -2.22890000      -0.70820000
C        1.07960000      -2.76120000      -1.47560000
C        0.08440000      -2.22220000       0.84040000
C        0.53770000      -0.78560000       1.18310000
C       -1.33070000      -3.02400000      -1.07370000
C       -2.28970000      -3.68140000      -1.38190000
H        1.05470000       1.91920000       0.21630000
H       -0.33670000       1.96240000      -0.88280000
H       -0.57470000       1.91470000       0.87490000
H       -0.73200000      -0.40020000      -1.94800000
H        1.97420000      -2.20780000      -1.17390000
H        1.23480000      -3.82430000      -1.26780000
H        0.94950000      -2.64100000      -2.55480000
H       -0.85960000      -2.44070000       1.34470000
H        0.80340000      -2.98890000       1.14050000
H        1.63090000      -0.70060000       1.26490000
H        0.13630000      -0.44260000       2.14430000
H       -3.14070000      -4.25690000      -1.64980000
