16
Properties=species:S:1:pos:R:3 gdb_130404=T pbc="F F F"
N        0.02640000       1.61510000      -0.07620000
C        0.27280000       0.29850000       0.16010000
N       -0.07170000      -0.36570000       1.21350000
O        0.44450000      -1.70080000       1.08380000
C        1.10520000      -1.82920000      -0.10640000
C        1.69500000      -2.95230000      -0.51920000
N        0.88780000      -4.66880000       2.24120000
H        1.48900000      -4.80570000       3.04930000
H        0.52000000      -3.72280000       2.31780000
H        0.09630000      -5.29300000       2.37210000
C        1.03790000      -0.53220000      -0.81030000
O        1.45640000      -0.19060000      -1.89480000
H        0.12080000       1.89050000      -1.04260000
H       -0.71400000       2.05900000       0.44350000
H        1.68520000      -3.85290000       0.08760000
H        2.18830000      -2.93940000      -1.48390000
