17
Properties=species:S:1:pos:R:3 gdb_2152=T pbc="F F F"
C       -0.31550000       1.51020000       0.08990000
C       -0.08650000       0.03290000       0.03420000
C        0.05390000      -0.74290000      -1.04370000
C        0.30230000      -2.19330000      -0.71080000
C        0.10460000      -2.24070000       0.82640000
C        0.11740000      -0.76770000       1.30780000
O        1.32120000      -0.37730000       1.97770000
H        0.45370000       1.99250000       0.70370000
H       -0.30540000       1.96450000      -0.90460000
H       -1.27970000       1.74240000       0.56040000
H        0.01130000      -0.38350000      -2.06780000
H       -0.39000000      -2.86330000      -1.23410000
H        1.30930000      -2.50580000      -1.02020000
H       -0.86200000      -2.69560000       1.06260000
H        0.87010000      -2.81890000       1.35000000
H       -0.66340000      -0.57880000       2.05300000
H        2.03270000      -0.41990000       1.32850000
