16
Properties=species:S:1:pos:R:3 gdb_16874=T pbc="F F F"
O        0.05530000      -0.08370000      -0.01220000
C        0.00330000       1.12790000      -0.08800000
C       -1.31590000       1.90440000      -0.08850000
N       -1.31410000       3.06340000      -0.99340000
C       -1.35530000       4.40260000      -0.41080000
C       -0.08770000       3.86700000      -0.97310000
C        1.02090000       3.37790000      -0.05280000
N        1.10920000       1.92690000      -0.15540000
H       -2.09970000       1.20750000      -0.39050000
H       -1.51900000       2.19580000       0.95460000
H       -1.93980000       5.13470000      -0.96070000
H       -1.42260000       4.48970000       0.67360000
H        0.24000000       4.19170000      -1.95810000
H        1.98050000       3.80840000      -0.34950000
H        0.83470000       3.69270000       0.98400000
H        1.99880000       1.46180000      -0.05780000
