16
Properties=species:S:1:pos:R:3 gdb_25699=T pbc="F F F"
C       -0.15200000       1.43010000       0.04240000
C       -0.05110000      -0.02160000       0.02560000
C        0.06330000      -1.22510000       0.01030000
C        0.09730000      -2.63630000      -0.00340000
C        1.18480000      -3.49620000      -0.06040000
N        0.71120000      -4.77060000      -0.04960000
C       -0.67160000      -4.77780000       0.01330000
C       -1.07310000      -3.46660000       0.04300000
O       -2.35420000      -3.02370000       0.10530000
H        0.84270000       1.88960000       0.03130000
H       -0.69810000       1.80880000      -0.82950000
H       -0.66900000       1.78970000       0.93980000
H        2.23910000      -3.28020000      -0.10680000
H        1.28320000      -5.59490000      -0.08280000
H       -1.23820000      -5.69240000       0.03130000
H       -2.31910000      -2.05860000       0.11170000
