23
Properties=species:S:1:pos:R:3 gdb_119059=T pbc="F F F"
C       -0.30780000       1.65850000       1.27800000
C       -0.06910000       0.30270000       0.63550000
O        0.14790000      -0.64130000       1.68420000
C        0.50130000      -1.93460000       1.28910000
C       -0.63960000      -2.78950000       0.79190000
O       -0.99570000      -2.39280000      -0.53070000
C        1.88520000      -2.15400000       0.71970000
C        1.56760000      -2.59060000       2.13520000
C        2.17350000      -1.86810000       3.31680000
H        0.55690000       1.96430000       1.87470000
H       -0.48450000       2.41670000       0.50890000
H       -1.18050000       1.62480000       1.93690000
H       -0.92390000      -0.00270000       0.02220000
H        0.80920000       0.33390000      -0.02610000
H       -0.33440000      -3.84710000       0.81010000
H       -1.48810000      -2.66920000       1.48210000
H       -1.80630000      -2.85190000      -0.77050000
H        2.01680000      -2.90030000      -0.05590000
H        2.51010000      -1.27400000       0.60930000
H        1.44490000      -3.66160000       2.27830000
H        2.18490000      -0.78980000       3.14610000
H        1.59740000      -2.05200000       4.23020000
H        3.20060000      -2.20490000       3.49400000
