17
Properties=species:S:1:pos:R:3 gdb_37893=T pbc="F F F"
C       -0.06740000       1.54550000       0.03360000
C        1.48130000       1.27990000       0.01200000
C        1.24380000       0.03350000       0.90330000
O        2.12330000      -1.03230000       0.56700000
C        1.80570000      -1.16010000      -0.81970000
O        0.67520000      -2.01410000      -0.98970000
C       -0.51190000      -1.33170000      -0.47990000
C        0.07410000       0.01410000      -0.12570000
C        1.25880000       0.23390000      -1.12130000
H       -0.49240000       1.91590000       0.97090000
H       -0.47300000       2.08910000      -0.82260000
H        2.27770000       2.02070000       0.08860000
H        1.07920000       0.10600000       1.97760000
H        2.63800000      -1.59980000      -1.36490000
H       -1.27340000      -1.30150000      -1.26740000
H       -0.90260000      -1.89090000       0.37690000
H        1.04720000       0.52540000      -2.14900000
