20
Properties=species:S:1:pos:R:3 gdb_11626=T pbc="F F F"
C       -0.51740000       1.33880000       0.12730000
C        0.18820000      -0.00290000      -0.08910000
O        1.12210000       0.06360000      -1.15820000
C        0.88960000      -0.50760000       1.17220000
O        1.95180000       0.39870000       1.44590000
C        2.77710000       0.00160000       2.49650000
C        3.88910000      -0.98020000       2.22980000
C        4.18770000       0.48940000       2.45860000
H        0.19170000       2.09020000       0.48700000
H       -0.94880000       1.68650000      -0.81460000
H       -1.32110000       1.24700000       0.86620000
H       -0.55040000      -0.75790000      -0.38510000
H        1.88810000       0.53140000      -0.80360000
H        0.19180000      -0.55350000       2.02290000
H        1.29210000      -1.51530000       0.99860000
H        2.27150000      -0.04940000       3.46140000
H        4.15170000      -1.69660000       3.00040000
H        3.98470000      -1.34760000       1.21400000
H        4.47270000       1.07540000       1.59220000
H        4.65540000       0.79430000       3.38760000
