18
Properties=species:S:1:pos:R:3 gdb_73549=T pbc="F F F"
O        0.22470000       1.38540000       0.07730000
C        0.11710000      -0.01020000       0.01940000
C        0.67130000      -0.61580000      -1.26560000
O       -0.47660000      -0.57020000      -2.15650000
C       -1.71440000      -0.74690000      -1.42840000
C       -1.28910000      -0.67240000       0.01470000
C       -1.53770000      -0.07700000       1.42870000
C       -0.08740000      -0.68990000       1.40160000
N       -0.60860000      -1.88960000       0.64460000
H        0.09210000       1.72900000      -0.81360000
H        1.44970000      -0.00280000      -1.72690000
H        1.02490000      -1.64020000      -1.13540000
H       -2.40400000       0.05520000      -1.71580000
H       -2.16540000      -1.71240000      -1.68680000
H       -1.63870000       1.00470000       1.51660000
H       -2.25390000      -0.61660000       2.05450000
H        0.61600000      -0.78900000       2.23010000
H       -1.29580000      -2.36990000       1.23160000
