17
Properties=species:S:1:pos:R:3 gdb_10553=T pbc="F F F"
O       -0.14730000       1.46760000       0.05590000
C       -0.01940000       0.06390000       0.20990000
C       -1.34260000      -0.55770000      -0.22820000
C       -1.37760000      -2.07200000      -0.07300000
C       -1.73990000      -2.67400000       1.27980000
C       -2.71600000      -2.76290000       0.14650000
C       -0.40530000      -2.79310000      -0.85870000
N        0.38120000      -3.35820000      -1.49240000
H        0.70440000       1.87100000       0.24650000
H        0.80000000      -0.33800000      -0.40470000
H        0.19070000      -0.20950000       1.25670000
H       -2.15010000      -0.12410000       0.37150000
H       -1.53500000      -0.28200000      -1.27060000
H       -1.22460000      -3.57610000       1.58640000
H       -1.93600000      -1.96810000       2.07930000
H       -3.58870000      -2.11990000       0.15910000
H       -2.86710000      -3.72600000      -0.32580000
