17
Properties=species:S:1:pos:R:3 gdb_47208=T pbc="F F F"
O       -0.02740000       0.18940000      -0.74350000
C       -0.00670000       1.25080000      -0.17430000
O       -1.15320000       1.70950000       0.37710000
C       -1.28280000       2.95020000       1.08350000
C       -0.03620000       3.76400000       1.19430000
C        1.11670000       3.36340000       0.67220000
C        1.23210000       2.08460000      -0.05060000
C        2.53480000       1.28600000       0.04060000
C        2.19790000       1.97560000      -1.23310000
H       -2.07260000       3.51790000       0.57230000
H       -1.67340000       2.70130000       2.07990000
H       -0.12720000       4.70490000       1.72780000
H        2.01440000       3.96930000       0.76270000
H        3.31030000       1.70120000       0.67460000
H        2.42210000       0.20940000       0.07530000
H        1.85730000       1.36610000      -2.06100000
H        2.73500000       2.87890000      -1.50030000
