23
Properties=species:S:1:pos:R:3 gdb_101193=T pbc="F F F"
C        0.13890000       1.62730000      -0.16640000
C        0.08320000       0.09630000      -0.15210000
C       -1.31890000      -0.49480000       0.08870000
C       -2.31260000      -0.14880000      -1.03110000
C       -1.24100000      -2.00310000       0.25380000
C       -0.70310000      -2.73660000       1.47330000
C       -1.20470000      -2.07570000       2.75340000
O       -2.57670000      -2.08690000       2.27550000
C       -2.17260000      -2.80810000       1.10530000
H        1.16990000       1.98020000      -0.26970000
H       -0.43590000       2.05100000      -0.99560000
H       -0.26350000       2.04570000       0.76330000
H        0.47820000      -0.29340000      -1.10110000
H        0.75460000      -0.27950000       0.63010000
H       -1.71360000      -0.07680000       1.02260000
H       -1.96140000      -0.52830000      -1.99880000
H       -3.29100000      -0.59650000      -0.83150000
H       -2.45530000       0.93100000      -1.12910000
H       -0.97290000      -2.53460000      -0.66030000
H        0.07300000      -3.48820000       1.41900000
H       -1.10610000      -2.71750000       3.63620000
H       -0.85180000      -1.06560000       2.99310000
H       -2.81270000      -3.61780000       0.77220000
