17
Properties=species:S:1:pos:R:3 gdb_10897=T pbc="F F F"
C       -0.05520000       1.64340000      -0.01110000
C        0.07090000       0.12660000       0.05910000
C        1.13530000      -0.60640000      -0.77900000
O        1.42210000      -0.65420000      -1.93430000
N        1.67670000      -1.37100000       0.33280000
C        2.17310000      -0.32450000       1.28700000
C        0.72620000      -0.58220000       1.25740000
C       -0.02570000      -1.26360000       2.36050000
H        0.88520000       2.14320000       0.23790000
H       -0.33650000       1.94840000      -1.02350000
H       -0.82440000       2.00650000       0.67780000
H       -0.89780000      -0.34040000      -0.15940000
H        2.75230000      -0.75710000       2.09680000
H        2.59500000       0.58970000       0.87720000
H       -0.44770000      -0.52620000       3.05290000
H       -0.85080000      -1.86340000       1.96270000
H        0.63250000      -1.92450000       2.93110000
