18
Properties=species:S:1:pos:R:3 gdb_39693=T pbc="F F F"
C       -0.08500000       1.42180000       0.16350000
C        1.42700000       1.30600000      -0.12220000
C        1.28890000      -0.02780000       0.57950000
O       -0.06980000       0.11220000       0.81330000
N        2.05690000      -0.96690000       0.88240000
C        1.50980000      -2.11020000       1.57980000
C        2.52720000      -3.03420000       2.27660000
O        1.78370000      -2.98220000       3.51370000
C        0.93320000      -1.93450000       3.00910000
H       -0.38760000       2.20150000       0.86610000
H       -0.74570000       1.41690000      -0.70620000
H        1.71280000       1.24280000      -1.17330000
H        2.06860000       2.02730000       0.38630000
H        0.82160000      -2.66160000       0.92990000
H        2.62650000      -4.05820000       1.89950000
H        3.52060000      -2.57620000       2.36840000
H        1.16710000      -0.95880000       3.45620000
H       -0.13020000      -2.15440000       3.15090000
