16
Properties=species:S:1:pos:R:3 gdb_64856=T pbc="F F F"
N       -0.03400000       1.50980000       0.01310000
C       -0.00320000       0.05020000      -0.01260000
C        0.20630000      -0.50130000       1.43160000
C       -1.34460000      -0.54840000       1.58960000
C       -1.45780000      -0.51170000       0.03460000
C       -1.92570000      -1.67870000       2.29030000
N       -2.38080000      -2.58880000       2.83910000
C        0.87400000      -0.50010000      -1.05330000
N        1.57310000      -0.90100000      -1.88300000
H        0.90210000       1.87690000       0.16350000
H       -0.34690000       1.86910000      -0.88500000
H        0.64270000      -1.50060000       1.42650000
H        0.75760000       0.14650000       2.11390000
H       -1.71420000       0.38230000       2.02290000
H       -2.22990000       0.12770000      -0.39430000
H       -1.52090000      -1.51420000      -0.39000000
