12
Properties=species:S:1:pos:R:3 gdb_42804=T pbc="F F F"
O        0.03890000      -0.01780000      -0.08670000
C        0.00850000       1.15720000      -0.08560000
C       -1.03450000       2.37530000       0.06130000
O       -0.02090000       2.92480000       0.94620000
C        0.97500000       2.42720000       0.02430000
C        0.59250000       3.11350000      -1.27800000
C       -0.76180000       3.06980000      -1.24350000
C        1.47330000       3.56290000      -2.28360000
N        2.22300000       3.93030000      -3.08700000
H       -2.03260000       2.30160000       0.48190000
H        1.99870000       2.42330000       0.38590000
H       -1.47610000       3.36110000      -1.99830000
