20
Properties=species:S:1:pos:R:3 gdb_13812=T pbc="F F F"
C        0.08530000       1.33840000      -0.17410000
C        0.11130000      -0.18550000      -0.07390000
O        0.79490000      -0.75450000      -1.20930000
C        0.71030000      -0.66490000       1.23230000
C       -0.16420000      -1.05010000       2.40380000
C        0.61470000      -2.11180000       1.66980000
C       -0.08500000      -3.14480000       0.80750000
O        0.67830000      -3.52260000      -0.31930000
H        1.09950000       1.74930000      -0.09540000
H       -0.33920000       1.65360000      -1.13080000
H       -0.51080000       1.76860000       0.63640000
H       -0.91040000      -0.56560000      -0.17180000
H        1.71540000      -0.46990000      -1.16890000
H        1.64290000      -0.16250000       1.48630000
H        0.14430000      -0.76090000       3.40220000
H       -1.23940000      -1.02700000       2.25010000
H        1.50000000      -2.49360000       2.17110000
H       -0.24920000      -4.05700000       1.39260000
H       -1.08350000      -2.77670000       0.51750000
H        0.81230000      -2.71160000      -0.83440000
