18
Properties=species:S:1:pos:R:3 gdb_15794=T pbc="F F F"
C        0.16800000       1.62010000       0.02370000
C       -0.01850000       0.10830000       0.05630000
O       -1.44130000      -0.14100000       0.14900000
C       -1.87760000      -1.05590000       1.02880000
O       -3.02710000      -1.36670000       1.12930000
C        0.52680000      -0.58920000      -1.16570000
C        1.97930000      -0.99210000      -1.21110000
C        0.90650000      -2.04630000      -1.10660000
H        1.23110000       1.86640000      -0.04480000
H       -0.34360000       2.04750000      -0.84350000
H       -0.24320000       2.08070000       0.92570000
H        0.46580000      -0.30690000       0.95230000
H       -1.06390000      -1.47520000       1.65420000
H        0.08770000      -0.23960000      -2.09600000
H        2.51180000      -0.88190000      -2.14880000
H        2.58880000      -0.80300000      -0.33300000
H        0.79990000      -2.56470000      -0.15890000
H        0.69870000      -2.66350000      -1.97290000
