19
Properties=species:S:1:pos:R:3 gdb_55460=T pbc="F F F"
C        0.91250000       0.89210000       0.29110000
C       -0.25910000       0.01120000      -0.06610000
O       -1.29360000      -0.03060000       0.55220000
C       -0.07320000      -0.87540000      -1.31160000
O        0.14940000      -0.02720000      -2.41070000
C        0.33770000      -0.77140000      -3.61250000
C        1.49730000      -1.75700000      -3.44940000
C        1.26540000      -2.58480000      -2.18310000
O        1.01910000      -1.72730000      -1.07070000
H        1.79730000       0.26960000       0.45690000
H        1.14220000       1.55020000      -0.55270000
H        0.68310000       1.47710000       1.18190000
H       -0.99130000      -1.46890000      -1.46860000
H       -0.59080000      -1.31140000      -3.86110000
H        0.52770000      -0.04020000      -4.40170000
H        1.57370000      -2.40920000      -4.32640000
H        2.43570000      -1.20110000      -3.35330000
H        0.40810000      -3.26400000      -2.32210000
H        2.13800000      -3.18780000      -1.92080000
