15
Properties=species:S:1:pos:R:3 gdb_73736=T pbc="F F F"
C       -0.00630000       1.47380000       0.06560000
C        0.01460000      -0.01080000      -0.01830000
C       -0.00840000      -0.80440000      -1.10450000
C       -0.05950000      -0.38270000      -2.45870000
N       -0.10130000      -0.00250000      -3.55090000
C        0.02790000      -2.22080000      -0.68450000
N        0.01920000      -3.23110000      -1.43820000
O        0.07320000      -2.23660000       0.68850000
C        0.06850000      -0.90210000       1.19120000
H        0.88510000       1.84530000       0.58550000
H       -0.04580000       1.92740000      -0.92640000
H       -0.87330000       1.81720000       0.64270000
H        0.05070000      -4.09540000      -0.89680000
H        0.97330000      -0.73320000       1.79080000
H       -0.80000000      -0.76140000       1.84900000
