20
Properties=species:S:1:pos:R:3 gdb_88227=T pbc="F F F"
C       -0.32290000       1.46360000       0.08200000
C        0.00800000      -0.00900000       0.02940000
C        1.39290000      -0.47930000      -0.30130000
C        0.85830000      -0.66780000       1.11510000
C        1.40060000       0.09380000       2.20080000
C        1.85070000       0.72770000       3.12530000
C        2.39340000       1.45330000       4.23820000
C        1.93020000       2.84660000       4.51920000
N        1.54230000       1.75700000       5.41880000
H        0.50940000       2.03840000       0.49720000
H       -0.53730000       1.84970000      -0.92040000
H       -1.20140000       1.65020000       0.70910000
H       -0.79920000      -0.64080000      -0.33180000
H        1.52180000      -1.36890000      -0.90760000
H        2.16270000       0.27340000      -0.43160000
H        0.57420000      -1.68440000       1.37330000
H        3.41390000       1.19780000       4.51310000
H        2.63160000       3.56190000       4.93970000
H        1.18730000       3.26810000       3.84870000
H        0.58950000       1.46790000       5.20930000
