23
Properties=species:S:1:pos:R:3 gdb_72468=T pbc="F F F"
C       -0.07780000       1.51220000       0.01780000
C        0.01110000      -0.01290000      -0.00590000
C        0.83730000      -0.56440000      -1.20150000
C        1.28190000      -1.98550000      -0.74810000
C        0.88330000      -2.09650000       0.75270000
C        0.78160000      -0.62200000       1.18550000
C       -0.49490000      -2.76410000       0.92940000
C       -1.59910000      -1.88650000       0.39390000
C       -1.37280000      -0.64520000      -0.03540000
H        0.92000000       1.96270000       0.05590000
H       -0.58230000       1.89340000      -0.87780000
H       -0.64070000       1.86480000       0.88900000
H        0.25900000      -0.57870000      -2.12970000
H        1.70790000       0.08030000      -1.37270000
H        0.80890000      -2.77260000      -1.34260000
H        2.36240000      -2.10700000      -0.86940000
H        1.63120000      -2.65340000       1.32440000
H        1.77580000      -0.16580000       1.26860000
H        0.26300000      -0.48470000       2.13980000
H       -0.50880000      -3.73610000       0.41680000
H       -0.67900000      -2.98990000       1.99070000
H       -2.60310000      -2.30370000       0.36330000
H       -2.18500000      -0.04600000      -0.44230000
