19
Properties=species:S:1:pos:R:3 gdb_79575=T pbc="F F F"
C       -0.03910000       1.53830000      -0.00770000
C        0.10610000       0.03790000       0.13770000
C        1.36740000      -0.75050000      -0.15740000
C        2.60780000      -0.02370000       0.30260000
C        3.28700000      -0.79490000       1.41380000
C        2.05600000       0.01980000       1.72920000
O        2.09000000       1.10770000       2.59200000
C        0.79990000      -0.68010000       1.27230000
O        0.19740000      -1.72030000       1.96990000
H        0.84800000       2.06770000       0.34570000
H       -0.20610000       1.81120000      -1.05580000
H       -0.89410000       1.90560000       0.57060000
H       -0.77720000      -0.52160000      -0.17070000
H        1.35850000      -1.62480000      -0.79820000
H        3.10450000       0.78900000      -0.21300000
H        3.26000000      -1.88080000       1.42930000
H        4.21200000      -0.35360000       1.77440000
H        2.30450000       0.78490000       3.47350000
H       -0.58740000      -1.37380000       2.40660000
