20
Properties=species:S:1:pos:R:3 gdb_22430=T pbc="F F F"
O       -0.17370000       1.34350000      -0.50390000
N        0.00340000      -0.04450000      -0.34460000
C       -1.04620000      -0.59960000       0.12170000
C       -2.32240000       0.14820000       0.46010000
C       -3.39670000      -0.79860000       0.99860000
C       -2.78800000      -1.73220000       2.08290000
C       -2.31480000      -2.62910000       0.90390000
C       -3.50580000      -2.05310000       0.08640000
C       -0.98840000      -2.10690000       0.34300000
H        0.68090000       1.61510000      -0.85460000
H       -2.08710000       0.93550000       1.18760000
H       -2.67130000       0.67410000      -0.43770000
H       -4.31370000      -0.25660000       1.24120000
H       -2.02640000      -1.31600000       2.75080000
H       -3.56180000      -2.22150000       2.67990000
H       -2.27330000      -3.70920000       1.06260000
H       -4.42910000      -2.60920000       0.26770000
H       -3.37210000      -1.91770000      -0.99200000
H       -0.75420000      -2.60470000      -0.60530000
H       -0.16640000      -2.34220000       1.02920000
