19
Properties=species:S:1:pos:R:3 gdb_37876=T pbc="F F F"
C       -0.00090000       1.57110000       0.00290000
C        1.50910000       1.86350000       0.02710000
C        2.13820000       0.60300000      -0.70610000
C        0.95780000      -0.23620000      -1.21920000
C        0.04950000       0.02690000       0.00450000
C        0.97840000      -0.34630000       1.20750000
O        1.02260000       0.72290000       2.19650000
C        2.06610000       1.33710000       1.41210000
C        2.41690000       0.02460000       0.69660000
H       -0.51470000       1.98300000       0.87260000
H       -0.47840000       1.94510000      -0.90800000
H        1.81290000       2.86120000      -0.28810000
H        2.98290000       0.77010000      -1.37280000
H        0.51630000       0.11640000      -2.15680000
H        1.23210000      -1.29070000      -1.33960000
H       -0.92040000      -0.47250000       0.00870000
H        0.77980000      -1.31700000       1.66500000
H        2.72800000       1.97290000       2.00170000
H        3.25440000      -0.62970000       0.93590000
