13
Properties=species:S:1:pos:R:3 gdb_133137=T pbc="F F F"
C        0.00610000       1.51590000       0.03600000
C       -0.05080000       0.02620000       0.09380000
C       -1.13370000      -0.73280000      -0.15820000
F       -2.29040000      -0.17080000      -0.49480000
C       -1.07260000      -2.16770000      -0.07120000
N       -2.04430000      -2.95780000      -0.29190000
N        0.22580000      -2.66910000       0.30040000
N        1.21940000      -2.00000000       0.53290000
O        1.12910000      -0.54540000       0.43720000
H        0.75560000       1.83620000      -0.69480000
H       -0.96610000       1.92170000      -0.24310000
H        0.30100000       1.91970000       1.00990000
H       -1.73710000      -3.92370000      -0.16230000
