19
Properties=species:S:1:pos:R:3 gdb_61542=T pbc="F F F"
C        0.31170000       1.58170000      -0.49870000
C        0.03980000       0.12410000      -0.19810000
C       -1.37730000      -0.38550000      -0.42060000
C       -2.37010000       0.14360000       0.63540000
O       -2.63650000       1.51240000       0.48240000
C       -3.66320000      -0.64280000       0.58400000
O       -4.73160000      -0.10090000       0.43210000
C        1.14700000      -0.84480000      -0.23010000
O        0.62870000      -0.37140000       1.01670000
H        1.34890000       1.82830000      -0.25880000
H        0.13880000       1.79080000      -1.56000000
H       -0.35340000       2.22650000       0.07920000
H       -1.73480000      -0.09780000      -1.41580000
H       -1.36640000      -1.48030000      -0.36910000
H       -1.92230000      -0.05730000       1.62590000
H       -3.60130000       1.58340000       0.40090000
H       -3.57670000      -1.74280000       0.69690000
H        0.94920000      -1.89320000      -0.45190000
H        2.15270000      -0.50510000      -0.47510000
