17
Properties=species:S:1:pos:R:3 gdb_24131=T pbc="F F F"
C       -0.05760000       1.47660000      -0.31030000
N       -0.13970000       0.01660000      -0.22720000
C       -0.21230000      -0.54330000       1.12010000
C       -1.41500000      -0.51760000       0.24380000
C        1.34620000       1.96080000      -0.23450000
C        2.22500000       2.50100000      -1.11340000
N        3.42780000       2.77070000      -0.47020000
C        3.22140000       2.38500000       0.74500000
O        1.98680000       1.88460000       0.97930000
H       -0.47190000       1.78660000      -1.27520000
H       -0.65760000       1.96800000       0.47770000
H        0.34030000      -1.46500000       1.27510000
H       -0.19160000       0.14710000       1.96100000
H       -2.20200000       0.19020000       0.50080000
H       -1.75910000      -1.41860000      -0.25510000
H        2.08090000       2.71490000      -2.16060000
H        3.90010000       2.41330000       1.58300000
