15
Properties=species:S:1:pos:R:3 gdb_19923=T pbc="F F F"
C        0.03990000       1.49420000       0.06490000
C        1.36270000       0.77630000       0.03950000
N        1.91200000       0.57210000       1.37760000
C        1.15790000      -0.31790000       1.87020000
O        0.68990000      -0.58930000       3.12960000
C       -0.63030000      -0.86700000       2.50980000
C        0.03570000      -0.92650000       1.09250000
C        0.01540000      -0.00710000      -0.10340000
H       -0.25900000       1.94600000       1.00580000
H       -0.24200000       2.06410000      -0.81450000
H        2.05830000       0.91860000      -0.77850000
H       -1.05210000      -1.79550000       2.89610000
H       -1.29840000      -0.01910000       2.67770000
H        0.19930000      -1.96780000       0.80410000
H       -0.29210000      -0.40000000      -1.06390000
