15
Properties=species:S:1:pos:R:3 gdb_19273=T pbc="F F F"
C        0.03540000       1.30780000       0.21450000
O       -0.04180000       0.02450000      -0.38340000
C       -1.24650000      -0.62040000      -0.13790000
C       -1.39920000      -2.02870000      -0.70940000
N       -0.44700000      -2.88310000       0.00410000
C       -1.78820000      -2.59970000       0.63040000
C       -1.59400000      -1.24400000       1.27140000
O       -1.77020000      -0.78520000       2.36120000
H        1.00960000       1.72270000      -0.05170000
H       -0.75440000       1.97440000      -0.16590000
H       -0.05070000       1.25230000       1.30640000
H       -2.11370000       0.00610000      -0.41960000
H       -1.79700000      -2.29510000      -1.67960000
H       -0.51840000      -3.82180000      -0.39000000
H       -2.46940000      -3.40220000       0.88050000
