18
Properties=species:S:1:pos:R:3 gdb_127109=T pbc="F F F"
C       -0.05020000       1.43070000       0.01050000
N        0.09340000      -0.01430000      -0.03670000
C       -0.02540000      -0.74730000       1.21140000
C        0.02110000      -0.64450000      -1.22700000
N       -0.01600000      -0.09950000      -2.42060000
C       -0.03770000      -1.20650000      -3.23200000
C       -0.07530000      -1.11710000      -4.71920000
N       -0.02500000      -2.36040000      -2.61820000
O        0.00970000      -1.98510000      -1.24140000
H        0.66530000       1.84660000       0.72770000
H        0.14750000       1.83990000      -0.97920000
H       -1.06260000       1.72430000       0.32110000
H       -1.05330000      -0.72610000       1.60040000
H        0.27130000      -1.78470000       1.06420000
H        0.63340000      -0.29390000       1.95890000
H        0.79990000      -0.57360000      -5.08780000
H       -0.09100000      -2.11520000      -5.15910000
H       -0.96340000      -0.56570000      -5.04250000
