16
Properties=species:S:1:pos:R:3 gdb_42587=T pbc="F F F"
O       -0.04610000      -0.04060000      -0.01300000
C       -0.05290000       1.16080000       0.00300000
C       -1.19100000       2.12590000       0.03120000
C       -0.70360000       3.33780000       0.83690000
C       -0.67220000       3.37230000      -0.66030000
N        0.78560000       3.24160000      -0.99390000
C        1.37750000       4.20320000       0.02760000
C        0.82480000       3.22440000       1.09370000
C        1.11250000       2.13790000       0.01900000
H       -2.22710000       1.82050000      -0.00470000
H       -1.37120000       3.91720000       1.45890000
H       -1.28300000       3.99470000      -1.29860000
H        2.46710000       4.20980000      -0.05480000
H        0.98190000       5.22200000      -0.01400000
H        1.17590000       3.16020000       2.12390000
H        2.11780000       1.74020000      -0.08370000
