23
Properties=species:S:1:pos:R:3 gdb_96355=T pbc="F F F"
C       -0.05170000       1.52720000      -0.08310000
C        0.06700000       0.01400000       0.01770000
O        0.70440000      -0.44640000      -1.16820000
C        0.68790000      -1.85780000      -1.29560000
C        1.44020000      -2.53250000      -0.14830000
C        0.88390000      -2.03650000       1.19360000
C        0.82370000      -0.49610000       1.27100000
C        2.22030000       0.12300000       1.39880000
O        0.00500000      -0.10420000       2.37690000
H        0.92550000       1.98560000      -0.25760000
H       -0.70120000       1.79360000      -0.92100000
H       -0.47540000       1.93130000       0.83870000
H       -0.94710000      -0.41780000       0.07820000
H       -0.35480000      -2.21980000      -1.32270000
H        1.14650000      -2.08320000      -2.26300000
H        1.34260000      -3.62150000      -0.22710000
H        2.50780000      -2.29930000      -0.23090000
H       -0.13960000      -2.40790000       1.32800000
H        1.47750000      -2.42720000       2.03040000
H        2.79860000      -0.00760000       0.48070000
H        2.14530000       1.19210000       1.61040000
H        2.77450000      -0.34760000       2.21990000
H        0.44230000      -0.39420000       3.18450000
