18
Properties=species:S:1:pos:R:3 gdb_121454=T pbc="F F F"
O       -0.56440000       1.57270000       0.27280000
C        0.05080000       0.30360000       0.25630000
C       -0.92760000      -0.76650000      -0.23190000
N       -1.44840000      -0.34540000      -1.52630000
C       -2.18690000      -1.13900000      -2.18180000
C       -2.82630000      -0.89640000      -3.54520000
N       -3.59120000      -2.10990000      -3.87080000
C       -3.42010000      -2.90060000      -2.88570000
N       -2.61140000      -2.42870000      -1.85710000
H       -0.99910000       1.64540000      -0.58820000
H        0.94080000       0.29490000      -0.39430000
H        0.37960000       0.08390000       1.27780000
H       -0.41680000      -1.74280000      -0.28710000
H       -1.74720000      -0.85900000       0.49830000
H       -3.48600000      -0.02230000      -3.52640000
H       -2.06650000      -0.70700000      -4.31100000
H       -3.85570000      -3.89180000      -2.81030000
H       -2.41030000      -2.91060000      -0.99840000
