15
Properties=species:S:1:pos:R:3 gdb_17440=T pbc="F F F"
O        0.08790000       1.45460000       0.04620000
C        0.05730000       0.05720000      -0.05890000
C       -1.25280000      -0.71930000      -0.05320000
C       -0.70840000      -1.75570000      -0.96140000
N       -1.76990000      -0.84920000      -1.46820000
C       -0.76400000      -0.13200000      -2.32510000
C        0.35450000      -0.64900000      -1.41140000
O        1.67510000      -0.77370000      -1.77670000
H       -0.65420000       1.81760000      -0.44710000
H        0.73930000      -0.33000000       0.70320000
H       -1.98720000      -0.81300000       0.73580000
H       -0.75960000      -2.83580000      -0.95400000
H       -0.76670000      -0.60210000      -3.31360000
H       -0.89950000       0.95160000      -2.43760000
H        1.72240000      -1.13830000      -2.66710000
