20
Properties=species:S:1:pos:R:3 gdb_76303=T pbc="F F F"
C       -1.06720000       0.96840000       0.16170000
C       -0.05870000      -0.16350000       0.04310000
C        0.82350000      -0.32240000      -1.24330000
C        1.08430000       0.94340000      -2.05140000
C        1.99870000      -0.76640000      -0.29660000
C        3.34270000      -0.27760000      -0.53000000
N        4.40910000       0.14990000      -0.66830000
C        1.22760000      -0.11430000       0.90900000
O        1.59690000       1.22030000       1.15270000
H       -0.59340000       1.94420000       0.04150000
H       -1.85170000       0.86730000      -0.59570000
H       -1.55010000       0.95260000       1.14430000
H       -0.55660000      -1.11970000       0.23930000
H        0.49680000      -1.12390000      -1.91150000
H        1.44250000       1.75770000      -1.41800000
H        1.83800000       0.75850000      -2.82350000
H        0.16730000       1.27290000      -2.55000000
H        2.02340000      -1.85450000      -0.18980000
H        1.22900000      -0.70540000       1.83430000
H        2.52560000       1.24340000       1.41200000
