20
Properties=species:S:1:pos:R:3 gdb_38720=T pbc="F F F"
C       -0.07610000       1.58210000      -0.13100000
C        1.39540000       1.97550000       0.07860000
N        2.53470000       1.97570000      -0.86670000
C        2.18720000       0.73690000      -0.17250000
C        1.23560000      -0.24890000      -0.85890000
C        0.00530000       0.03610000       0.01510000
C        0.39830000      -0.46980000       1.43550000
O        1.63320000       0.00530000       1.98080000
C        2.75600000       0.13600000       1.08580000
H       -0.70460000       2.06060000       0.62560000
H       -0.48340000       1.85290000      -1.11290000
H        1.60970000       2.56490000       0.96360000
H        2.24470000       1.90590000      -1.84050000
H        1.06560000      -0.00260000      -1.91270000
H        1.58510000      -1.28400000      -0.80420000
H       -0.91480000      -0.48400000      -0.28050000
H       -0.35760000      -0.18570000       2.17550000
H        0.41290000      -1.57150000       1.38360000
H        3.23250000      -0.84190000       0.92000000
H        3.46690000       0.79490000       1.59060000
