22
Properties=species:S:1:pos:R:3 gdb_94614=T pbc="F F F"
C       -0.53140000       1.29730000      -0.20960000
C        0.05230000      -0.10120000      -0.05340000
C        1.48410000      -0.34300000      -0.58030000
O        1.94240000      -0.78840000       0.71090000
C        0.64440000      -0.55000000       1.31390000
C        0.71020000       0.45080000       2.45720000
N        1.29280000      -0.16970000       3.64010000
C        2.75270000      -0.17490000       3.71040000
C        1.95360000       0.72620000       4.58420000
H        0.15830000       2.06970000       0.14440000
H       -0.74550000       1.50410000      -1.26380000
H       -1.47100000       1.40500000       0.34240000
H       -0.65860000      -0.83760000      -0.43750000
H        1.59580000      -1.11970000      -1.34670000
H        2.01290000       0.56040000      -0.91520000
H        0.22450000      -1.48730000       1.70000000
H        1.27220000       1.34440000       2.13190000
H       -0.30840000       0.77320000       2.71050000
H        3.19810000      -1.07990000       4.11290000
H        3.29860000       0.27150000       2.88360000
H        1.97040000       1.79050000       4.35260000
H        1.80710000       0.49410000       5.63530000
