12
Properties=species:S:1:pos:R:3 gdb_3861=T pbc="F F F"
N        0.04070000       1.37270000       0.15000000
C       -0.08240000       0.00640000       0.06120000
C       -1.15660000      -0.83670000       0.07940000
C       -0.54790000      -2.12450000       0.03940000
N       -1.19750000      -3.34660000       0.11430000
N        0.76630000      -2.06980000      -0.01640000
O        1.06310000      -0.67910000       0.00850000
H        0.92000000       1.72650000      -0.20000000
H       -0.75290000       1.89240000      -0.19250000
H       -2.20190000      -0.58880000       0.14860000
H       -2.06940000      -3.37980000      -0.39440000
H       -0.59430000      -4.12020000      -0.13320000
