23
Properties=species:S:1:pos:R:3 gdb_59268=T pbc="F F F"
C       -0.08800000       1.57500000      -0.11060000
C       -0.23480000       0.05440000      -0.00350000
O        0.13980000      -0.57860000      -1.23140000
C        0.54230000      -0.48330000       1.19120000
C       -0.06770000      -1.13300000       2.41950000
C       -1.48330000      -1.69470000       2.34460000
C       -1.50820000      -2.65000000       1.12200000
C       -0.03420000      -3.03910000       0.85030000
C        0.80930000      -1.94610000       1.49350000
H        0.96470000       1.85370000      -0.24340000
H       -0.65140000       1.95220000      -0.96800000
H       -0.45330000       2.06870000       0.79640000
H       -1.29880000      -0.17550000       0.09800000
H        1.10160000      -0.55880000      -1.28220000
H        1.39730000       0.14680000       1.43460000
H        0.28900000      -0.80090000       3.38900000
H       -1.68120000      -2.24960000       3.26890000
H       -2.25470000      -0.91880000       2.27610000
H       -2.13460000      -3.52690000       1.30760000
H       -1.92810000      -2.15110000       0.24580000
H        0.20880000      -3.99150000       1.33620000
H        0.16070000      -3.15530000      -0.21890000
H        1.82560000      -2.20250000       1.77570000
