16
Properties=species:S:1:pos:R:3 gdb_29935=T pbc="F F F"
C       -0.04920000       1.44980000       0.00890000
N       -0.01280000       0.00280000      -0.01090000
C       -0.04040000      -0.77900000      -1.11830000
C        0.00960000      -2.12110000      -0.76940000
C        0.07130000      -2.15470000       0.63570000
O        0.13340000      -3.22860000       1.42340000
C        0.05730000      -0.82810000       1.10770000
C        0.10780000      -0.47680000       2.48110000
O        0.16870000      -1.33230000       3.37250000
H        0.85150000       1.86100000       0.47650000
H       -0.10410000       1.81420000      -1.01820000
H       -0.92510000       1.81510000       0.55520000
H       -0.09460000      -0.32860000      -2.09830000
H        0.00210000      -2.96160000      -1.44370000
H        0.16400000      -2.87550000       2.34160000
H        0.09140000       0.59860000       2.74770000
