11
Properties=species:S:1:pos:R:3 gdb_131410=T pbc="F F F"
O       -0.04640000       1.29900000      -0.24360000
C        0.09290000      -0.01130000      -0.06720000
N        1.21150000      -0.51170000       0.28790000
O        1.24130000      -1.91820000       0.44490000
C        0.13530000      -2.68750000       0.22820000
N        0.14790000      -3.94140000       0.36490000
C       -1.14660000      -2.01460000      -0.18940000
O       -2.17580000      -2.55750000      -0.41000000
O       -1.07330000      -0.63390000      -0.31620000
H        0.80890000       1.71170000      -0.05630000
H        1.07490000      -4.26590000       0.64970000
