22
Properties=species:S:1:pos:R:3 gdb_64490=T pbc="F F F"
C        0.04040000       1.64970000       0.00780000
C        0.04670000       0.11800000      -0.01110000
C        1.20980000      -0.64250000      -0.74960000
C        2.17170000      -0.18510000       0.38670000
C        0.86530000      -0.64240000       1.09930000
C        0.90020000      -1.87830000       0.15060000
N       -1.27200000      -0.47320000      -0.26030000
C       -2.51670000       0.23300000      -0.00880000
C       -2.07700000      -0.06970000      -1.40110000
H        1.04080000       2.07970000      -0.00850000
H       -0.48870000       2.05790000      -0.85950000
H       -0.45940000       2.02630000       0.90640000
H        1.40720000      -0.63820000      -1.82400000
H        3.03850000      -0.83030000       0.54610000
H        2.46360000       0.86270000       0.44360000
H        0.66110000      -0.63530000       2.17220000
H       -0.03900000      -2.39550000      -0.02080000
H        1.73590000      -2.56490000       0.30610000
H       -3.29830000      -0.35470000       0.46670000
H       -2.49220000       1.27620000       0.29610000
H       -1.75280000       0.77390000      -2.00860000
H       -2.52990000      -0.88020000      -1.96730000
