15
Properties=species:S:1:pos:R:3 gdb_22650=T pbc="F F F"
O       -0.17960000       1.30620000       0.20060000
N       -0.01030000      -0.08640000       0.20160000
C       -1.11290000      -0.66930000      -0.03270000
C       -2.47280000      -0.04850000      -0.25230000
O       -3.34720000      -1.14710000      -0.52350000
C       -2.79250000      -2.31790000       0.05670000
C       -1.26170000      -2.16910000      -0.09990000
C       -3.18950000      -2.45230000       1.47670000
N       -3.49950000      -2.55220000       2.58530000
H        0.70510000       1.62530000       0.40920000
H       -2.79110000       0.50930000       0.63940000
H       -2.49770000       0.63240000      -1.10750000
H       -3.19260000      -3.17490000      -0.49080000
H       -0.96860000      -2.54480000      -1.08590000
H       -0.68250000      -2.69370000       0.66030000
