16
Properties=species:S:1:pos:R:3 gdb_7303=T pbc="F F F"
C       -0.03500000       1.44500000       0.22170000
C        0.03580000      -0.03110000      -0.08430000
O        1.07170000      -0.59210000      -0.37270000
C       -1.25100000      -0.86520000      -0.03050000
O       -0.97430000      -2.18660000      -0.40100000
C       -1.88780000      -0.82280000       1.37960000
C       -3.15270000      -1.65860000       1.43570000
O       -4.21660000      -1.23780000       1.81230000
H        0.85780000       1.94180000      -0.16000000
H       -0.93500000       1.90010000      -0.20200000
H       -0.07760000       1.59200000       1.30720000
H       -1.96010000      -0.41230000      -0.74460000
H       -0.01480000      -2.20720000      -0.55990000
H       -1.16460000      -1.24890000       2.08820000
H       -2.13660000       0.19650000       1.68620000
H       -3.02640000      -2.70650000       1.09570000
