18
Properties=species:S:1:pos:R:3 gdb_100402=T pbc="F F F"
C       -0.53110000       1.05520000      -0.05980000
O        0.20320000      -0.17030000      -0.05730000
C        0.86300000      -0.47680000      -1.18930000
N        1.42710000      -1.72730000      -1.08820000
N        0.86900000       0.32500000      -2.18510000
C        1.50290000      -0.09140000      -3.42510000
C        1.26350000       0.97100000      -4.50710000
C        2.95460000      -0.33560000      -3.25920000
N        4.07340000      -0.56580000      -3.07350000
H        0.13740000       1.90660000      -0.20860000
H       -1.28080000       1.05680000      -0.85500000
H       -1.00900000       1.10850000       0.91910000
H        1.43790000      -2.10120000      -0.15090000
H        2.29000000      -1.86940000      -1.59370000
H        1.08190000      -1.04900000      -3.77460000
H        1.69060000       1.92680000      -4.19510000
H        1.70950000       0.67270000      -5.45950000
H        0.18670000       1.09980000      -4.63720000
