19
Properties=species:S:1:pos:R:3 gdb_102100=T pbc="F F F"
C       -0.25760000       1.48740000      -0.09890000
C        0.11040000       0.02790000      -0.03580000
O        1.48800000      -0.33090000      -0.21500000
C        0.87980000      -0.58390000       1.06060000
C        1.41320000       0.19520000       2.26340000
C        1.85440000      -0.76980000       3.36460000
O        2.30690000       0.01350000       4.45300000
C        2.60360000       1.06080000       1.85150000
O        2.56380000       2.25260000       1.70620000
H       -0.23270000       1.83560000      -1.13660000
H       -1.27840000       1.62800000       0.27390000
H        0.42130000       2.10790000       0.48840000
H       -0.57050000      -0.63810000      -0.57040000
H        0.70990000      -1.64580000       1.25220000
H        0.64550000       0.86400000       2.66560000
H        1.00950000      -1.41640000       3.64850000
H        2.65250000      -1.42490000       2.97610000
H        2.66040000      -0.57170000       5.12950000
H        3.54380000       0.48850000       1.69120000
