23
Properties=species:S:1:pos:R:3 gdb_88459=T pbc="F F F"
C        1.85000000       0.41110000      -0.85330000
C        1.05510000      -0.72840000      -0.24870000
C        1.74730000      -1.93650000       0.34160000
C        0.97790000      -0.99990000       1.23820000
C        1.66890000      -0.16680000       2.30180000
C        0.92550000       1.13500000       2.57550000
C        2.08690000      -0.96760000       3.56830000
C        3.52640000      -0.61360000       3.15870000
O        3.07220000       0.09990000       1.99150000
H        2.76000000       0.60800000      -0.28410000
H        2.13290000       0.17360000      -1.88540000
H        1.26090000       1.33520000      -0.88150000
H        0.13350000      -0.94720000      -0.78400000
H        1.34940000      -2.92640000       0.14540000
H        2.82900000      -1.88360000       0.40790000
H        0.01310000      -1.36100000       1.59060000
H       -0.10730000       0.93050000       2.87920000
H        1.41490000       1.70150000       3.37340000
H        0.89990000       1.75680000       1.67620000
H        1.74650000      -0.54740000       4.51660000
H        1.84320000      -2.03050000       3.53240000
H        4.07320000       0.04240000       3.84700000
H        4.16920000      -1.46200000       2.89510000
