22
Properties=species:S:1:pos:R:3 gdb_15261=T pbc="F F F"
C        0.01340000       1.52990000       0.18130000
C        0.01740000       0.04920000      -0.21850000
C       -1.36560000      -0.56730000      -0.13130000
C       -1.60210000      -2.06460000       0.02810000
C       -0.45950000      -3.05520000       0.10690000
C       -1.89480000      -1.10460000       1.16730000
O       -1.03110000      -1.04940000       2.26160000
C       -1.40160000      -1.93360000       3.30030000
H        1.01130000       1.96950000       0.08430000
H       -0.66900000       2.11090000      -0.44940000
H       -0.30960000       1.64490000       1.22030000
H        0.39370000      -0.05690000      -1.24430000
H        0.71180000      -0.49250000       0.42820000
H       -2.10380000      -0.04940000      -0.74090000
H       -2.47990000      -2.44410000      -0.49000000
H        0.31190000      -2.72510000       0.80590000
H       -0.81820000      -4.03280000       0.44740000
H        0.01170000      -3.20120000      -0.87140000
H       -2.93820000      -0.91620000       1.42780000
H       -1.39160000      -2.98140000       2.96950000
H       -0.67670000      -1.80530000       4.10780000
H       -2.40670000      -1.70220000       3.68490000
