20
Properties=species:S:1:pos:R:3 gdb_38731=T pbc="F F F"
C       -0.09230000       1.48180000       0.06650000
N        1.25040000       0.90430000      -0.00200000
C        2.04600000       0.47680000       1.16630000
C        1.55200000      -0.97570000       1.39340000
C        0.03940000      -0.75590000       1.29090000
C        0.06140000       0.00760000      -0.03590000
C        0.16830000      -0.96560000      -1.18880000
C        1.57360000      -1.60740000      -0.98680000
O        1.93310000      -1.89900000       0.37330000
H       -0.47550000       1.86140000       1.01530000
H       -0.34740000       2.09960000      -0.79270000
H        3.10790000       0.52560000       0.90980000
H        1.88080000       1.08020000       2.07040000
H        1.91150000      -1.41680000       2.32750000
H       -0.51560000      -1.69400000       1.24150000
H       -0.34260000      -0.15800000       2.12300000
H       -0.63180000      -1.71260000      -1.16300000
H        0.14800000      -0.47320000      -2.16570000
H        1.65560000      -2.56450000      -1.51010000
H        2.30830000      -0.91410000      -1.41200000
