21
Properties=species:S:1:pos:R:3 gdb_95147=T pbc="F F F"
C       -0.02430000       1.56230000      -0.03090000
C        0.00800000       0.03290000       0.01810000
C        0.65840000      -0.53220000      -1.26790000
O        1.00100000      -1.91470000      -1.21160000
C        1.62960000      -2.31330000       0.01800000
C        0.64630000      -2.07360000       1.17440000
C        0.75200000      -0.53480000       1.26130000
C        2.26020000      -0.35400000       1.10480000
C        2.76630000      -1.37040000       0.40360000
H        0.98760000       1.98140000      -0.05700000
H       -0.55350000       1.92010000      -0.92100000
H       -0.53460000       1.97310000       0.84650000
H       -1.02510000      -0.33380000       0.07390000
H       -0.02680000      -0.43430000      -2.11570000
H        1.55230000       0.06580000      -1.49760000
H        1.92040000      -3.35410000      -0.13570000
H       -0.35780000      -2.43910000       0.94290000
H        1.00330000      -2.54630000       2.09420000
H        0.34630000      -0.10460000       2.18180000
H        2.80490000       0.51410000       1.45790000
H        3.78790000      -1.47960000       0.06100000
