18
Properties=species:S:1:pos:R:3 gdb_10268=T pbc="F F F"
C       -0.36040000       1.61590000       0.01440000
C       -0.25020000       0.08780000      -0.03690000
C        0.81960000      -0.46600000       0.91110000
N       -1.56380000      -0.55800000       0.19230000
C       -2.15420000      -1.32490000      -0.81150000
N       -1.59810000      -1.49630000      -1.94170000
C       -2.23050000      -0.41800000       1.39490000
O       -3.30300000      -0.91100000       1.66270000
H        0.59560000       2.06520000      -0.27100000
H       -1.12600000       1.97350000      -0.67950000
H       -0.60880000       1.97890000       1.01730000
H        0.00720000      -0.20510000      -1.05580000
H        0.62520000      -0.19830000       1.95500000
H        0.87440000      -1.55570000       0.84050000
H        1.79840000      -0.05700000       0.64300000
H       -3.11370000      -1.72870000      -0.48640000
H       -2.18310000      -2.08270000      -2.53340000
H       -1.66950000       0.20750000       2.11000000
