15
Properties=species:S:1:pos:R:3 gdb_28683=T pbc="F F F"
C        0.14240000       1.39770000       0.17260000
C       -0.00720000      -0.06300000      -0.04740000
N       -0.30980000      -0.69250000      -1.13910000
C       -0.30670000      -2.03490000      -0.78380000
C        0.00010000      -2.14980000       0.52860000
C        0.14050000      -3.29420000       1.47560000
C        1.50500000      -3.45960000       1.99210000
N        2.57730000      -3.58870000       2.40090000
O        0.19470000      -0.88580000       1.01890000
H        1.15350000       1.64080000       0.51480000
H       -0.05250000       1.91710000      -0.76560000
H       -0.55870000       1.75510000       0.93370000
H       -0.52350000      -2.81460000      -1.49700000
H       -0.53730000      -3.17770000       2.33060000
H       -0.15350000      -4.21330000       0.95920000
