15
Properties=species:S:1:pos:R:3 gdb_66968=T pbc="F F F"
N        0.06620000       1.43820000      -0.07970000
C        0.06350000       0.03160000      -0.01730000
C       -0.08930000      -0.89380000      -1.23510000
O        0.58930000      -2.11620000      -0.96530000
C        0.02960000      -2.02780000       0.36860000
C       -1.06730000      -1.01710000      -0.11400000
C        0.81180000      -0.83800000       1.01520000
C        2.26810000      -0.88600000       1.01290000
N        3.42350000      -0.91540000       1.01560000
H        0.06880000       1.80830000      -1.02010000
H       -0.66800000       1.87770000       0.46060000
H       -0.17600000      -0.54650000      -2.25690000
H       -0.09000000      -2.98300000       0.87190000
H       -2.14350000      -0.96160000      -0.03470000
H        0.43930000      -0.63170000       2.02210000
