17
Properties=species:S:1:pos:R:3 gdb_2486=T pbc="F F F"
C       -0.04230000       1.55970000       0.01610000
C       -0.07440000       0.05480000       0.00630000
C        0.39210000      -0.75670000      -1.24010000
C       -0.55100000      -1.85370000      -0.75730000
C       -0.48750000      -1.86500000       0.77850000
C        0.49310000      -0.77480000       1.19770000
C       -1.36740000      -0.87700000       0.05290000
H        0.99080000       1.92640000      -0.02380000
H       -0.57580000       1.97720000      -0.84500000
H       -0.50280000       1.96400000       0.92440000
H        0.03180000      -0.30260000      -2.16860000
H        1.46440000      -0.97200000      -1.32880000
H       -0.90860000      -2.71760000      -1.30290000
H       -0.79940000      -2.73690000       1.33910000
H        1.56890000      -0.99080000       1.19420000
H        0.21110000      -0.33460000       2.15950000
H       -2.42830000      -0.67710000       0.09820000
