19
Properties=species:S:1:pos:R:3 gdb_72874=T pbc="F F F"
C       -0.38010000       1.53520000      -0.28430000
C       -0.00870000       0.08870000      -0.05630000
C       -1.12710000      -0.91840000       0.29530000
O       -0.39960000      -1.40750000       1.45050000
C        0.66850000      -0.48050000       1.22850000
C        1.82270000      -1.08650000       0.35240000
C        1.12480000      -0.53560000      -0.92020000
C        3.16590000      -0.49100000       0.67450000
O        3.70240000       0.39200000       0.05170000
H        0.50960000       2.17290000      -0.29860000
H       -0.88930000       1.65810000      -1.24790000
H       -1.05200000       1.90450000       0.49810000
H       -2.07770000      -0.45990000       0.59640000
H       -1.32530000      -1.70970000      -0.43840000
H        0.93420000       0.08580000       2.12650000
H        1.86960000      -2.17290000       0.47180000
H        0.80790000      -1.27990000      -1.65450000
H        1.74880000       0.21330000      -1.41310000
H        3.63850000      -0.90590000       1.59400000
