14
Properties=species:S:1:pos:R:3 gdb_14468=T pbc="F F F"
O       -0.06910000       1.36910000       0.07450000
C        0.05810000      -0.00650000       0.06000000
C        1.06820000      -0.80680000       0.87850000
C        0.51080000      -2.16760000       0.41240000
O       -0.87480000      -2.08460000       0.73720000
C       -1.16960000      -0.89880000       0.02350000
C       -0.21350000      -0.89560000      -1.15560000
O        0.55550000      -2.07610000      -1.01190000
H        0.66560000       1.74770000      -0.42200000
H        2.10490000      -0.65810000       0.56680000
H        0.96050000      -0.65900000       1.95470000
H        0.94600000      -3.09920000       0.76240000
H       -2.19910000      -0.57410000       0.03120000
H       -0.42470000      -0.57890000      -2.16620000
