17
Properties=species:S:1:pos:R:3 gdb_72693=T pbc="F F F"
O       -0.00180000       1.35750000       0.35180000
C       -0.05670000       0.01300000       0.03760000
C        0.27670000      -0.47460000      -1.38980000
C       -0.96070000      -1.42360000      -1.36440000
C       -1.34970000      -0.93610000       0.05120000
O       -0.78310000      -1.71450000       1.11440000
C        0.40850000      -0.89630000       1.18420000
C       -2.72580000      -0.43060000       0.31670000
O       -3.41350000       0.09380000      -0.52780000
H       -0.29960000       1.87050000      -0.40760000
H        0.17500000       0.32610000      -2.12930000
H        1.26130000      -0.93250000      -1.51520000
H       -1.72080000      -1.17090000      -2.10540000
H       -0.74650000      -2.49260000      -1.39890000
H        1.32470000      -1.47330000       1.01290000
H        0.47720000      -0.36460000       2.13980000
H       -3.05470000      -0.53290000       1.37340000
