16
Properties=species:S:1:pos:R:3 gdb_27932=T pbc="F F F"
C        0.03920000       1.43730000       0.12000000
C        0.01700000      -0.03670000      -0.05430000
N       -0.07230000      -0.72640000      -1.13740000
C       -0.04680000      -2.05840000      -0.71610000
C       -0.12470000      -3.19970000      -1.62680000
O       -0.21880000      -3.13090000      -2.82930000
C        0.06060000      -2.09320000       0.64790000
C        0.13500000      -3.15990000       1.67620000
O        0.10230000      -0.80460000       1.08330000
H        0.96550000       1.76140000       0.60540000
H       -0.03560000       1.90820000      -0.86010000
H       -0.79540000       1.77150000       0.74470000
H       -0.08960000      -4.18580000      -1.11000000
H        1.06620000      -3.08740000       2.24860000
H       -0.69470000      -3.07690000       2.38670000
H        0.09260000      -4.14560000       1.21030000
