18
Properties=species:S:1:pos:R:3 gdb_67329=T pbc="F F F"
C       -0.09240000       1.47110000       0.03890000
C       -0.05520000      -0.02540000      -0.04910000
C        0.84540000      -0.94350000      -0.94090000
C        1.93890000      -0.88070000       0.12050000
N        0.69790000      -0.90340000       1.00630000
C        0.02450000      -1.86870000      -0.00360000
C       -1.25270000      -1.01250000      -0.08290000
C       -2.17970000      -1.02440000       1.09890000
O       -3.38360000      -1.02310000       1.00630000
H        0.91820000       1.89030000       0.07370000
H       -0.60550000       1.89160000      -0.83210000
H       -0.62630000       1.79290000       0.93840000
H        0.90020000      -0.97090000      -2.03430000
H        2.57740000      -1.76020000       0.25110000
H        2.53110000       0.03490000       0.21200000
H        0.11860000      -2.94830000       0.12160000
H       -1.81230000      -1.05480000      -1.02120000
H       -1.67410000      -1.03190000       2.08720000
