17
Properties=species:S:1:pos:R:3 gdb_43367=T pbc="F F F"
O       -0.06690000       0.00210000       0.10420000
C       -0.08800000       1.20960000       0.04630000
C       -1.25950000       2.10350000      -0.03030000
C       -0.85930000       3.38180000      -0.04050000
C        0.64050000       3.54160000       0.00750000
C        1.17900000       2.10550000       0.05610000
C        2.25250000       1.66850000       1.08090000
C        3.03610000       1.19400000      -0.15630000
O        2.05390000       1.77060000      -1.04770000
H       -2.27770000       1.73750000      -0.06140000
H       -1.52270000       4.23990000      -0.07400000
H        1.02320000       4.05170000      -0.88380000
H        0.95120000       4.14040000       0.87240000
H        2.71180000       2.49510000       1.62600000
H        1.93810000       0.88900000       1.77540000
H        4.02850000       1.63140000      -0.31220000
H        3.09230000       0.10650000      -0.26990000
