21
Properties=species:S:1:pos:R:3 gdb_71884=T pbc="F F F"
C        0.06120000       1.53500000       0.02330000
C       -0.01970000       0.02540000       0.00100000
C        0.45740000      -0.72090000      -1.27580000
C       -0.69610000      -1.74280000      -1.12890000
C       -0.43870000      -2.80720000      -0.03030000
C       -0.77130000      -1.75260000       1.05520000
O       -1.55000000      -2.14240000       2.15040000
C        0.37940000      -0.74270000       1.29470000
C       -1.35800000      -0.81130000      -0.04920000
H        1.10520000       1.87140000       0.06350000
H       -0.39300000       1.97250000      -0.87300000
H       -0.45390000       1.94970000       0.89700000
H        0.30850000      -0.09370000      -2.16090000
H        1.48390000      -1.10490000      -1.29090000
H       -1.19280000      -2.07770000      -2.03920000
H       -1.22620000      -3.56680000      -0.04040000
H        0.54080000      -3.29820000      -0.00280000
H       -1.00780000      -2.69730000       2.72300000
H        1.40370000      -1.12440000       1.37310000
H        0.14790000      -0.14150000       2.18010000
H       -2.36900000      -0.41160000      -0.06330000
