17
Properties=species:S:1:pos:R:3 gdb_6625=T pbc="F F F"
C       -0.02030000       1.49330000      -0.00610000
C       -0.00160000       0.03760000       0.02940000
C        0.03020000      -1.16590000       0.06070000
C        0.03910000      -2.62400000       0.09680000
C       -1.37190000      -3.22250000      -0.02200000
C       -1.35220000      -4.74680000       0.07610000
N       -2.53970000      -5.35080000      -0.22590000
O       -0.36340000      -5.37900000       0.39360000
H        0.56770000       1.88010000      -0.84600000
H       -1.04080000       1.87770000      -0.11440000
H        0.39650000       1.92090000       0.91270000
H        0.66570000      -3.02120000      -0.71010000
H        0.49660000      -2.98620000       1.02350000
H       -2.01190000      -2.82820000       0.77700000
H       -1.83910000      -2.91710000      -0.96520000
H       -3.37600000      -4.82610000      -0.41220000
H       -2.61150000      -6.34720000      -0.10100000
