18
Properties=species:S:1:pos:R:3 gdb_51222=T pbc="F F F"
O       -0.25270000       0.13000000       0.21020000
C        0.05640000       1.29010000       0.12460000
C        1.44090000       1.78920000      -0.25040000
C        1.38230000       2.81210000      -1.34780000
C        1.09620000       2.60130000      -2.83720000
C        1.50290000       4.08890000      -3.01140000
C        0.40810000       4.81680000      -2.21620000
N        0.93520000       4.20510000      -0.95070000
C        2.24870000       3.98370000      -1.62460000
H       -0.67560000       2.10380000       0.32350000
H        1.86950000       2.26170000       0.64360000
H        2.06410000       0.93300000      -0.52520000
H        1.83230000       1.92000000      -3.27230000
H        0.08880000       2.30960000      -3.15480000
H        1.89760000       4.45830000      -3.95550000
H        0.55250000       5.89850000      -2.15730000
H       -0.64020000       4.59240000      -2.44720000
H        3.20210000       4.31390000      -1.23270000
