21
Properties=species:S:1:pos:R:3 gdb_95372=T pbc="F F F"
C       -0.53560000       1.45330000       0.16870000
C        0.12940000       0.09000000       0.00440000
C        1.31190000       0.05280000      -0.97050000
O        2.06580000      -1.10840000      -0.63040000
C        1.83830000      -1.46260000       0.73720000
C        3.06310000      -1.18350000       1.61330000
C        2.88460000       0.29930000       1.94520000
O        1.47380000       0.50280000       2.03990000
C        0.77410000      -0.48490000       1.27840000
H        0.16910000       2.17440000       0.58960000
H       -0.89350000       1.83450000      -0.79350000
H       -1.39560000       1.39350000       0.84310000
H       -0.61210000      -0.64590000      -0.33450000
H        1.00920000      -0.03450000      -2.01880000
H        1.92630000       0.96200000      -0.86910000
H        1.52750000      -2.51180000       0.77010000
H        3.01330000      -1.79100000       2.52340000
H        3.99430000      -1.40810000       1.08970000
H        3.33140000       0.59600000       2.89870000
H        3.31430000       0.93180000       1.15450000
H        0.03750000      -0.95780000       1.93710000
