16
Properties=species:S:1:pos:R:3 gdb_51351=T pbc="F F F"
O       -0.28250000      -0.06540000       0.36720000
C       -0.11420000       1.06150000      -0.01780000
C        1.22750000       1.77590000      -0.02160000
N        1.28600000       2.73780000      -1.11750000
C        1.78280000       2.20580000      -2.42570000
C        2.36360000       3.59250000      -2.82210000
O        3.67330000       3.08260000      -3.19260000
C        3.31050000       2.26810000      -2.04530000
C        2.58840000       3.44520000      -1.28920000
H       -0.95010000       1.68980000      -0.39900000
H        1.28490000       2.33560000       0.92410000
H        2.03160000       1.02290000      -0.00590000
H        1.24460000       1.47980000      -3.03560000
H        1.91860000       4.40470000      -3.39300000
H        4.01440000       1.50600000      -1.71340000
H        2.98750000       4.16450000      -0.57320000
