19
Properties=species:S:1:pos:R:3 gdb_92199=T pbc="F F F"
O       -0.07350000       1.51070000       0.06180000
C       -0.00160000       0.11190000       0.02200000
C        0.33380000      -0.71820000       1.34690000
C       -0.70670000      -1.76580000       0.83280000
C       -2.01240000      -2.44810000       1.32320000
C       -2.98690000      -1.51140000       0.51300000
C       -2.50430000      -0.12880000       0.96950000
C       -1.34080000      -0.61040000       0.07930000
O       -2.32680000      -1.25070000      -0.79000000
H        0.81520000       1.86890000      -0.02390000
H        0.62410000      -0.25090000      -0.80470000
H        1.36400000      -1.05770000       1.46720000
H        0.02240000      -0.15990000       2.23160000
H       -0.19430000      -2.41810000       0.12060000
H       -2.06630000      -3.49590000       1.02100000
H       -2.22160000      -2.38550000       2.39460000
H       -4.03470000      -1.79200000       0.41080000
H       -3.04440000       0.68710000       0.49040000
H       -2.34350000       0.06010000       2.03320000
