14
Properties=species:S:1:pos:R:3 gdb_29149=T pbc="F F F"
C       -0.03440000       1.48490000      -0.02930000
C       -0.00360000      -0.01030000      -0.04940000
N       -0.02420000      -0.65830000      -1.16840000
C        0.00500000      -2.02630000      -1.14130000
O       -0.02100000      -2.58740000      -2.37690000
C        0.05450000      -2.71060000       0.02170000
O        0.07720000      -2.05670000       1.21300000
C        0.05070000      -0.68310000       1.27020000
O        0.07070000      -0.12880000       2.33810000
H        0.84710000       1.87590000       0.49010000
H       -0.07050000       1.87010000      -1.04840000
H       -0.90200000       1.83910000       0.53760000
H        0.00120000      -3.54720000      -2.29660000
H        0.08010000      -3.78670000       0.13520000
