19
Properties=species:S:1:pos:R:3 gdb_69838=T pbc="F F F"
O       -0.12160000       1.38770000       0.21670000
C       -0.02010000       0.01010000      -0.00650000
C       -0.41280000      -0.57480000      -1.33650000
C       -1.30330000      -0.76090000      -0.11520000
C       -1.40790000      -2.05110000       0.65790000
C       -0.97580000      -3.39520000       0.10960000
C       -0.11070000      -2.67430000       1.10360000
O        1.06170000      -2.08590000       0.60890000
C        1.08770000      -0.67340000       0.78130000
H        0.59760000       1.82030000      -0.25780000
H       -0.77750000       0.11360000      -2.09060000
H        0.15680000      -1.41700000      -1.71230000
H       -2.20360000      -0.15610000      -0.12090000
H       -2.22300000      -2.06680000       1.37420000
H       -1.51330000      -4.27720000       0.44000000
H       -0.61380000      -3.43940000      -0.91120000
H       -0.01520000      -3.06520000       2.11570000
H        2.07520000      -0.34860000       0.43340000
H        0.99230000      -0.39730000       1.84300000
