18
Properties=species:S:1:pos:R:3 gdb_124655=T pbc="F F F"
C       -0.11640000       1.54640000       0.10270000
C        0.01670000       0.03470000      -0.00430000
C        0.75480000      -0.59080000       1.17490000
O       -1.34470000      -0.47210000      -0.06990000
C       -1.53350000      -1.67390000      -0.61370000
N       -0.56530000      -2.42860000      -1.08800000
O       -1.20630000      -3.57560000      -1.57210000
C       -2.52470000      -3.45650000      -1.36240000
C       -2.81790000      -2.28200000      -0.75800000
H        0.87420000       2.00910000       0.13420000
H       -0.66140000       1.95010000      -0.75450000
H       -0.65460000       1.82130000       1.01530000
H        0.51560000      -0.23890000      -0.94000000
H        0.24470000      -0.35400000       2.11410000
H        0.81450000      -1.67500000       1.06340000
H        1.77420000      -0.19570000       1.22720000
H       -3.12850000      -4.28610000      -1.69770000
H       -3.77370000      -1.88840000      -0.45900000
