18
Properties=species:S:1:pos:R:3 gdb_126311=T pbc="F F F"
C       -0.13590000       1.56200000       0.00950000
C        0.06060000       0.03410000       0.03330000
C        0.75510000      -0.48660000      -1.19240000
C        2.05050000      -0.88880000      -1.20720000
C        2.66030000      -1.36140000      -2.41320000
N        2.02410000      -1.44090000      -3.54240000
N        0.73710000      -1.05040000      -3.51830000
C       -0.01030000      -0.56390000      -2.44020000
N       -1.24740000      -0.21770000      -2.50330000
H        0.82590000       2.08170000      -0.04850000
H       -0.74390000       1.85110000      -0.84960000
H       -0.64480000       1.89060000       0.92060000
H        0.63870000      -0.25220000       0.91850000
H       -0.92240000      -0.44320000       0.10110000
H        2.64340000      -0.85590000      -0.29820000
H        3.69700000      -1.67790000      -2.43360000
H        0.27620000      -1.12950000      -4.41330000
H       -1.63070000      -0.34260000      -3.44140000
