17
Properties=species:S:1:pos:R:3 gdb_36344=T pbc="F F F"
C       -0.00960000      -1.12730000      -0.61660000
C       -0.02150000      -0.01680000      -0.15890000
C       -0.00650000       1.32810000       0.40580000
C        1.38200000       1.94460000       0.41930000
O        1.82850000       2.55840000      -0.80170000
C        1.58390000       3.38730000       0.31340000
C        0.61090000       4.56380000       0.34300000
O        1.59280000       5.36190000       1.04040000
C        2.60030000       4.32880000       0.95080000
H       -0.00840000      -2.10570000      -1.02910000
H       -0.67840000       1.98270000      -0.16130000
H       -0.38660000       1.29980000       1.43620000
H        2.14500000       1.34720000       0.91940000
H        0.36660000       4.96820000      -0.64740000
H       -0.31000000       4.43860000       0.92570000
H        2.99400000       4.04640000       1.93440000
H        3.42910000       4.60640000       0.28730000
