27
Properties=species:S:1:pos:R:3 gdb_120029=T pbc="F F F"
C        0.41780000       1.53250000      -0.35690000
C        0.23310000       0.03100000      -0.12170000
C       -1.23260000      -0.41740000      -0.20780000
C       -1.42250000      -1.91550000       0.01200000
C       -1.31520000      -2.54480000       1.44680000
C       -1.51790000      -1.61880000       2.64470000
C       -2.54900000      -3.43380000       1.10630000
C       -2.83640000      -2.57010000      -0.15760000
C       -4.05410000      -1.65450000      -0.04820000
H        1.47200000       1.82150000      -0.29720000
H        0.04780000       1.82590000      -1.34590000
H       -0.13110000       2.12100000       0.38680000
H        0.82300000      -0.53070000      -0.85830000
H        0.64380000      -0.23870000       0.85960000
H       -1.82970000       0.15850000       0.51030000
H       -1.62310000      -0.15250000      -1.20080000
H       -0.72110000      -2.44250000      -0.64650000
H       -0.39070000      -3.11050000       1.60050000
H       -2.44260000      -1.03780000       2.56840000
H       -1.58040000      -2.20670000       3.56760000
H       -0.69020000      -0.91080000       2.76040000
H       -2.28450000      -4.46810000       0.87070000
H       -3.34270000      -3.44890000       1.86070000
H       -2.92690000      -3.15280000      -1.08040000
H       -4.04480000      -1.05820000       0.86980000
H       -4.11620000      -0.96050000      -0.89350000
H       -4.97470000      -2.24910000      -0.04040000
