18
Properties=species:S:1:pos:R:3 gdb_11221=T pbc="F F F"
C        0.03130000       1.58740000       0.08710000
C        0.02670000       0.09170000       0.05520000
C       -0.35190000      -0.69260000      -0.95420000
C       -0.15820000      -2.17050000      -0.65110000
C        0.06390000      -2.16370000       0.89430000
C        0.53330000      -0.72960000       1.22450000
C       -1.25550000      -3.02840000      -1.08600000
C       -2.16380000      -3.73240000      -1.44030000
H        1.04510000       1.97610000       0.24920000
H       -0.35110000       2.01430000      -0.84380000
H       -0.58120000       1.96590000       0.91520000
H       -0.72200000      -0.35210000      -1.91450000
H        0.75730000      -2.52120000      -1.15370000
H       -0.89450000      -2.36150000       1.38150000
H        0.76390000      -2.93860000       1.21480000
H        1.62910000      -0.66050000       1.29000000
H        0.14840000      -0.37440000       2.18790000
H       -2.96490000      -4.35370000      -1.75530000
