20
Properties=species:S:1:pos:R:3 gdb_97246=T pbc="F F F"
C        0.80320000       1.32900000       0.22100000
N        0.62070000      -0.09960000       0.03240000
C        0.40410000      -0.57900000      -1.11740000
O        0.32060000       0.16510000      -2.24730000
C        0.18440000      -0.55940000      -3.48170000
C        1.23320000      -1.66480000      -3.59360000
C        1.20410000      -2.60020000      -2.35820000
C        0.23650000      -2.07930000      -1.27330000
O        0.43620000      -2.72910000      -0.05110000
H        1.05530000       1.86490000      -0.70060000
H       -0.11460000       1.76750000       0.63180000
H        1.59520000       1.49290000       0.95830000
H       -0.83360000      -0.96300000      -3.55500000
H        0.30380000       0.19140000      -4.26560000
H        1.05850000      -2.21730000      -4.52230000
H        2.21640000      -1.19320000      -3.68690000
H        0.90920000      -3.61750000      -2.62830000
H        2.19440000      -2.66800000      -1.90010000
H       -0.79720000      -2.25460000      -1.62020000
H        0.58170000      -2.00550000       0.58540000
