12
Properties=species:S:1:pos:R:3 gdb_20622=T pbc="F F F"
C       -0.00810000       1.53800000       0.06760000
C        0.01470000       0.04600000       0.02330000
C       -0.00070000      -0.78200000      -1.06430000
O        0.02980000      -2.08060000      -0.68270000
N        0.06720000      -2.12910000       0.69470000
C        0.05820000      -0.88380000       1.10140000
C       -0.04200000      -0.49540000      -2.44870000
N       -0.07630000      -0.22230000      -3.57320000
H        0.88330000       1.93090000       0.56770000
H       -0.04490000       1.95920000      -0.93950000
H       -0.88010000       1.90250000       0.62040000
H        0.08300000      -0.67670000       2.16230000
