18
Properties=species:S:1:pos:R:3 gdb_58604=T pbc="F F F"
C       -0.11230000       1.31330000      -0.36050000
C       -0.35970000      -0.19760000      -0.27890000
O        0.74030000      -0.86240000       0.31400000
C       -1.64320000      -0.54160000       0.48740000
C       -2.93260000       0.16530000       0.07330000
C       -3.29290000      -0.09160000      -1.32010000
N       -3.56110000      -0.30100000      -2.42430000
C       -1.73960000      -1.82160000       1.19690000
O       -1.46540000      -0.59500000       1.90620000
H        0.86640000       1.48710000      -0.81300000
H       -0.86320000       1.82100000      -0.97360000
H       -0.11470000       1.76400000       0.63860000
H       -0.44630000      -0.60600000      -1.29230000
H        0.70890000      -0.64600000       1.25580000
H       -3.74740000      -0.16690000       0.72350000
H       -2.83090000       1.24600000       0.21800000
H       -2.71810000      -2.25480000       1.39470000
H       -0.90580000      -2.51460000       1.14620000
