16
Properties=species:S:1:pos:R:3 gdb_1966=T pbc="F F F"
C       -0.06870000       1.52500000       0.07760000
C       -0.07590000       0.00170000      -0.01880000
N        0.63710000      -0.46750000      -1.19400000
C        0.01300000      -0.23840000      -2.52010000
C        0.35980000      -1.69310000      -2.87000000
O        0.36080000      -2.35140000      -3.86480000
C        0.72340000      -1.93220000      -1.39760000
H        0.95710000       1.90320000       0.10560000
H       -0.57340000       1.97880000      -0.78200000
H       -0.58960000       1.85600000       0.98100000
H        0.41800000      -0.42610000       0.86170000
H       -1.12180000      -0.36830000      -0.00660000
H       -1.07990000      -0.08630000      -2.49080000
H        0.46440000       0.54970000      -3.13110000
H        1.69760000      -2.38360000      -1.18190000
H       -0.06160000      -2.51290000      -0.88360000
