17
Properties=species:S:1:pos:R:3 gdb_42922=T pbc="F F F"
O        0.27250000       0.10100000      -0.25860000
C        0.05990000       1.25860000      -0.06310000
C       -1.18650000       2.14120000      -0.07830000
O       -1.11530000       2.88180000       1.16310000
C       -0.32160000       3.33810000       0.07420000
C        0.98370000       2.51910000       0.11740000
C        1.86690000       2.64070000       1.32700000
C        3.24060000       2.01840000       1.32140000
C        3.09720000       3.51820000       1.29440000
H       -2.16310000       2.00840000      -0.52760000
H       -0.49630000       4.33940000      -0.30030000
H        1.56360000       2.62590000      -0.80910000
H        1.32360000       2.60460000       2.26540000
H        3.58980000       1.54690000       2.23290000
H        3.56690000       1.52130000       0.41410000
H        3.32980000       4.03460000       0.36860000
H        3.34710000       4.07860000       2.18830000
