18
Properties=species:S:1:pos:R:3 gdb_22613=T pbc="F F F"
C       -0.02150000       1.66330000      -0.03160000
C        0.06760000       0.14030000      -0.00700000
C        0.65760000      -0.61870000      -1.21570000
C        2.11320000      -0.28250000      -1.40180000
C        1.77290000      -1.23470000      -0.29680000
O        2.37200000      -2.46840000      -0.25160000
C        1.13880000      -0.54390000       0.85120000
N        1.29980000      -0.77470000       2.08870000
O        0.36630000      -0.04900000       2.86110000
H        0.93110000       2.12390000      -0.30890000
H       -0.77610000       1.99260000      -0.75350000
H       -0.30130000       2.04050000       0.95580000
H       -0.90560000      -0.27780000       0.27660000
H        0.07700000      -1.10880000      -1.98640000
H        2.58150000      -0.78540000      -2.24290000
H        2.50730000       0.71040000      -1.20270000
H        1.92560000      -2.98290000       0.43200000
H        0.60610000      -0.30380000       3.75830000
