17
Properties=species:S:1:pos:R:3 gdb_127853=T pbc="F F F"
C       -0.10410000       1.39940000       0.06350000
N       -0.03640000      -0.05070000       0.01830000
C        0.56690000      -0.59900000      -0.97760000
C        1.22450000       0.03360000      -2.11810000
N        1.79830000      -0.63120000      -3.07810000
N        1.77320000      -1.96220000      -3.01950000
C        2.48990000      -2.69630000      -4.04980000
N        1.23420000      -2.69430000      -2.02610000
C        0.65940000      -2.04820000      -1.06130000
H        0.89080000       1.86820000       0.11890000
H       -0.61740000       1.82930000      -0.81090000
H       -0.66020000       1.70400000       0.95370000
H        1.26620000       1.11190000      -2.21920000
H        3.46710000      -3.03000000      -3.68380000
H        1.90280000      -3.56940000      -4.33890000
H        2.62700000      -2.03100000      -4.90070000
H        0.22070000      -2.64630000      -0.26830000
