21
Properties=species:S:1:pos:R:3 gdb_40810=T pbc="F F F"
C       -0.26230000       1.34350000      -0.19360000
C        1.16390000       1.03850000       0.20200000
C        0.16370000      -0.07710000       0.06290000
C       -0.34100000      -0.83460000       1.28100000
O       -0.35550000       0.05830000       2.38480000
C       -1.06160000      -0.44300000       3.50660000
C       -2.55070000      -0.60580000       3.19580000
C       -2.71340000      -1.32110000       1.88070000
C       -1.69970000      -1.44480000       1.02800000
H       -0.89000000       1.81110000       0.55530000
H       -0.46750000       1.64340000      -1.21530000
H        1.94150000       1.12470000      -0.54910000
H        1.46460000       1.30980000       1.20650000
H        0.26970000      -0.71910000      -0.80750000
H        0.37720000      -1.65140000       1.49380000
H       -0.63970000      -1.41310000       3.81640000
H       -0.89360000       0.27220000       4.31670000
H       -3.03840000      -1.16670000       4.00340000
H       -3.04220000       0.37620000       3.16250000
H       -3.68550000      -1.74750000       1.64700000
H       -1.81180000      -1.99250000       0.09570000
