18
Properties=species:S:1:pos:R:3 gdb_86871=T pbc="F F F"
C       -0.12430000       1.28570000       0.31810000
N       -0.05870000      -0.11990000      -0.00790000
C       -1.17870000      -0.83060000      -0.58590000
C       -0.71960000      -2.31660000      -0.62280000
C        0.81970000      -2.23210000      -0.50330000
C        1.11490000      -0.82840000       0.02610000
O        2.18790000      -0.40420000       0.39840000
C       -1.30440000      -3.06920000       0.55460000
O       -1.96400000      -4.07120000       0.47030000
H        0.85480000       1.57990000       0.69990000
H       -0.36300000       1.89020000      -0.56660000
H       -0.88750000       1.47630000       1.08160000
H       -2.08340000      -0.69210000       0.02180000
H       -1.41200000      -0.46550000      -1.59640000
H       -1.04980000      -2.81770000      -1.53340000
H        1.25500000      -2.98140000       0.16300000
H        1.30740000      -2.34930000      -1.47570000
H       -1.07030000      -2.61270000       1.54600000
