15
Properties=species:S:1:pos:R:3 gdb_55725=T pbc="F F F"
N       -0.18210000       1.28860000      -0.03870000
C        0.02500000      -0.03420000       0.20270000
O        0.95640000      -0.52110000       0.78780000
O       -1.04020000      -0.75150000      -0.30230000
C       -0.96770000      -2.14500000      -0.12300000
C       -1.23940000      -2.71100000       1.24920000
C       -2.28970000      -2.81230000       0.17840000
C       -0.03030000      -2.81410000      -0.99540000
N        0.69550000      -3.36530000      -1.70660000
H        0.60220000       1.89900000       0.11440000
H       -0.87490000       1.56210000      -0.71440000
H       -0.69300000      -3.60000000       1.53890000
H       -1.37490000      -1.97740000       2.03410000
H       -3.14050000      -2.14330000       0.22970000
H       -2.47990000      -3.77320000      -0.28360000
