22
Properties=species:S:1:pos:R:3 gdb_59714=T pbc="F F F"
C        0.07510000       1.52390000      -0.01140000
C       -0.00310000      -0.00160000       0.04190000
O        0.70140000      -0.50630000       1.17930000
C       -1.43860000      -0.54060000       0.01340000
C       -2.25600000      -0.14200000      -1.24560000
C       -3.28620000      -1.27780000      -1.46000000
C       -2.61000000      -2.50240000      -0.87130000
N       -1.20280000      -2.64490000      -1.31040000
C       -1.50980000      -2.06090000       0.01690000
H        1.11710000       1.84890000       0.05500000
H       -0.35240000       1.91860000      -0.93790000
H       -0.47640000       1.97120000       0.82650000
H        0.52810000      -0.42640000      -0.81780000
H        0.32590000      -0.08600000       1.96120000
H       -1.95710000      -0.18010000       0.91640000
H       -2.73140000       0.83630000      -1.14270000
H       -1.58490000      -0.09370000      -2.10740000
H       -4.21110000      -1.08030000      -0.90410000
H       -3.55440000      -1.40000000      -2.51420000
H       -3.18670000      -3.39920000      -0.66700000
H       -0.90990000      -3.61020000      -1.18430000
H       -1.22190000      -2.60950000       0.90610000
