15
Properties=species:S:1:pos:R:3 gdb_27065=T pbc="F F F"
C       -0.05010000       1.49940000       0.02610000
C        0.05760000       0.01600000      -0.02820000
C        0.21810000      -0.85940000      -1.07150000
O        0.35860000      -0.47940000      -2.38130000
C       -0.10650000      -1.31780000      -3.35190000
O        0.02910000      -1.06000000      -4.50810000
N        0.27290000      -2.16010000      -0.66460000
C        0.14000000      -2.10220000       0.64360000
N        0.01320000      -0.81930000       1.07600000
H        0.76230000       1.95360000       0.60610000
H        0.00390000       1.89680000      -0.98950000
H       -0.99830000       1.83010000       0.46670000
H       -0.59230000      -2.21290000      -2.93760000
H        0.13650000      -2.94680000       1.31510000
H       -0.08360000      -0.52040000       2.03230000
