23
Properties=species:S:1:pos:R:3 gdb_101887=T pbc="F F F"
C        0.08790000       1.63900000      -0.10270000
C        0.03160000       0.10610000      -0.06020000
C        0.70690000      -0.49300000      -1.29630000
O        0.01120000      -0.04790000      -2.45160000
C        0.65770000      -0.48610000       1.21420000
C       -0.06810000      -0.11230000       2.51230000
C        0.55220000      -0.78580000       3.74960000
C       -0.22990000      -0.48420000       5.00660000
O        0.22360000       0.01320000       6.00470000
H        1.12010000       1.99350000       0.01210000
H       -0.28860000       2.00140000      -1.06150000
H       -0.51130000       2.09290000       0.69160000
H       -1.02270000      -0.20290000      -0.10250000
H        1.76480000      -0.18100000      -1.32420000
H        0.69100000      -1.59280000      -1.22800000
H        0.48420000      -0.35950000      -3.22820000
H        0.67640000      -1.58140000       1.12850000
H        1.70770000      -0.16830000       1.28420000
H       -0.05270000       0.97390000       2.65480000
H       -1.12560000      -0.39910000       2.43350000
H        0.54110000      -1.87690000       3.60770000
H        1.59030000      -0.47490000       3.90090000
H       -1.31080000      -0.75820000       4.94620000
