15
Properties=species:S:1:pos:R:3 gdb_81261=T pbc="F F F"
O       -0.02130000       1.39090000      -0.07410000
C        0.03810000      -0.01120000      -0.01990000
C        0.11770000      -0.61510000       1.43540000
C       -1.41200000      -0.28250000       1.52390000
C       -1.40070000      -0.61050000      -0.01140000
C       -1.09490000      -2.09880000       0.04770000
O       -1.56590000      -3.02580000      -0.54540000
C        0.05220000      -2.09830000       1.12480000
O        0.69280000      -3.02310000       1.53640000
H        0.86530000       1.73630000       0.07600000
H        0.74470000      -0.40750000      -0.76060000
H        0.85040000      -0.28390000       2.16860000
H       -2.03600000      -0.89420000       2.17910000
H       -1.58020000       0.77790000       1.69930000
H       -2.16670000      -0.27360000      -0.70510000
