21
Properties=species:S:1:pos:R:3 gdb_53532=T pbc="F F F"
C       -0.06780000       1.48160000      -0.28520000
C       -0.02860000       0.04090000      -0.07390000
C        0.03650000      -1.15040000       0.09600000
C        0.04820000      -2.59720000       0.31120000
C       -1.34120000      -3.19550000       0.10730000
O       -2.31040000      -2.62270000       0.94220000
C       -1.78250000      -3.64880000      -1.26490000
C       -1.55100000      -4.65710000      -0.14840000
C       -0.43030000      -5.67080000      -0.21380000
H        0.86570000       1.84040000      -0.73260000
H       -0.88520000       1.76530000      -0.95740000
H       -0.21120000       2.02110000       0.65750000
H        0.77010000      -3.06890000      -0.36380000
H        0.38140000      -2.81320000       1.33490000
H       -2.30220000      -1.67280000       0.76550000
H       -2.80550000      -3.43470000      -1.55280000
H       -1.06100000      -3.61660000      -2.07600000
H       -2.46310000      -5.02660000       0.31290000
H        0.45490000      -5.27310000      -0.71960000
H       -0.12440000      -5.99780000       0.78630000
H       -0.74790000      -6.55910000      -0.77060000
