17
Properties=species:S:1:pos:R:3 gdb_38687=T pbc="F F F"
C        0.00670000       1.52260000       0.06780000
C        1.42280000       2.07510000      -0.07220000
O        2.36680000       1.83800000       0.97490000
C        2.55190000       1.14740000      -0.26530000
C        2.17160000      -0.34780000      -0.31900000
O        0.91440000      -0.44040000      -1.00110000
C       -0.01940000      -0.02800000       0.00030000
C        0.54400000      -0.66630000       1.26470000
C        1.84040000      -0.87130000       1.07070000
H       -0.45650000       1.88750000       0.99190000
H       -0.58060000       1.91810000      -0.76860000
H        1.48810000       3.07710000      -0.49660000
H        3.42800000       1.46110000      -0.83000000
H        2.90690000      -0.92590000      -0.88300000
H       -1.01120000      -0.38840000      -0.28620000
H       -0.02970000      -0.83670000       2.16590000
H        2.57600000      -1.22720000       1.77830000
