23
Properties=species:S:1:pos:R:3 gdb_112911=T pbc="F F F"
C       -0.32850000       1.49730000       0.24140000
C       -0.32530000      -0.03340000       0.20170000
C        0.75520000      -0.63490000       1.10050000
O        0.55720000      -0.19590000       2.45070000
C        0.31240000      -1.33420000       3.26860000
C       -0.78800000      -1.05280000       4.26750000
O       -0.05650000      -2.37520000       2.39890000
C        0.74760000      -2.18030000       1.23900000
C        0.19730000      -3.00210000       0.08890000
H        0.62340000       1.90420000      -0.11860000
H       -1.12520000       1.90680000      -0.38680000
H       -0.47790000       1.85190000       1.26420000
H       -1.30170000      -0.41740000       0.51950000
H       -0.16220000      -0.37860000      -0.82690000
H        1.74240000      -0.28840000       0.76370000
H        1.25400000      -1.60230000       3.78550000
H       -1.71330000      -0.80980000       3.73940000
H       -0.95340000      -1.92830000       4.90110000
H       -0.50510000      -0.20850000       4.90110000
H        1.77780000      -2.50820000       1.45990000
H       -0.83760000      -2.73200000      -0.13260000
H        0.80020000      -2.85280000      -0.81210000
H        0.22650000      -4.06470000       0.34490000
