19
Properties=species:S:1:pos:R:3 gdb_89372=T pbc="F F F"
C       -0.16480000       1.52570000      -0.05730000
C        0.07690000       0.02710000      -0.00620000
O        0.94380000      -0.39750000      -1.06930000
C        1.95530000      -1.21950000      -0.41230000
C        2.52800000      -2.21990000      -1.37440000
O        1.23670000      -1.80480000       0.65820000
C        0.82930000      -0.55520000       1.24360000
C        2.15060000       0.18620000       1.36530000
C        2.86680000      -0.22920000       0.32010000
H        0.77410000       2.07810000       0.02680000
H       -0.63510000       1.79600000      -1.00700000
H       -0.83540000       1.83660000       0.75160000
H       -0.87250000      -0.51600000      -0.09590000
H        2.99370000      -1.70060000      -2.21570000
H        3.28220000      -2.83330000      -0.87530000
H        1.73250000      -2.86380000      -1.75530000
H        0.22510000      -0.70840000       2.13570000
H        2.37320000       0.97040000       2.07530000
H        3.82390000       0.12160000      -0.04080000
