18
Properties=species:S:1:pos:R:3 gdb_67664=T pbc="F F F"
O       -0.10600000       1.38370000       0.11620000
C        0.02890000       0.00970000       0.07760000
C       -0.04910000      -0.77240000      -1.22840000
C        0.77730000      -2.04400000      -1.37700000
N        0.88810000      -2.59330000      -0.01280000
C        1.83730000      -1.72250000       0.77360000
C        0.66760000      -0.83840000       1.21070000
C       -0.29250000      -1.97140000       0.76280000
C       -1.07760000      -1.00620000      -0.14600000
H        0.67180000       1.78080000      -0.29140000
H       -0.35430000      -0.18830000      -2.09090000
H        0.25030000      -2.75320000      -2.02820000
H        1.77870000      -1.89300000      -1.79310000
H        2.27770000      -2.29570000       1.59570000
H        2.64340000      -1.27360000       0.18200000
H        0.61450000      -0.36800000       2.19420000
H       -0.80330000      -2.65520000       1.43690000
H       -2.14830000      -0.90050000      -0.25750000
