19
Properties=species:S:1:pos:R:3 gdb_74004=T pbc="F F F"
C       -0.05400000       1.45060000      -0.05510000
C       -0.02620000      -0.04060000       0.02520000
C       -1.02310000      -0.90720000       0.17560000
C       -2.51310000      -0.91370000      -0.02640000
C       -2.65870000      -2.21080000      -0.82070000
C       -1.54920000      -2.95640000      -0.81080000
C       -0.49590000      -2.31790000       0.06870000
O        0.83430000      -2.18520000      -0.42640000
C        1.25050000      -0.84210000      -0.17240000
H        0.52040000       1.90540000       0.76230000
H        0.39720000       1.80690000      -0.98980000
H       -1.07500000       1.83700000       0.00330000
H       -3.08140000      -0.96810000       0.91410000
H       -2.88350000      -0.03370000      -0.56470000
H       -3.58980000      -2.48140000      -1.30730000
H       -1.43140000      -3.92630000      -1.27900000
H       -0.45700000      -2.84880000       1.03940000
H        1.82830000      -0.48000000      -1.03440000
H        1.91790000      -0.80180000       0.70690000
