21
Properties=species:S:1:pos:R:3 gdb_109565=T pbc="F F F"
C        0.10930000       1.53910000       0.16830000
C        0.09950000       0.02230000      -0.05450000
C       -1.30130000      -0.57230000       0.05900000
C       -1.53100000      -2.12290000      -0.04890000
O       -0.39350000      -2.91910000       0.19770000
C       -2.56790000      -2.04720000       1.13060000
C       -2.59630000      -3.10910000       2.21870000
C       -1.97620000      -0.66090000       1.44110000
O       -1.91400000       0.00300000       2.43850000
H        1.12620000       1.93790000       0.10330000
H       -0.49900000       2.05190000      -0.58510000
H       -0.29580000       1.78670000       1.15300000
H        0.51110000      -0.22300000      -1.04070000
H        0.76340000      -0.45410000       0.67710000
H       -1.98500000      -0.06010000      -0.63130000
H       -1.92880000      -2.47470000      -1.00180000
H        0.03020000      -2.62860000       1.01270000
H       -3.57120000      -1.89980000       0.70980000
H       -1.58980000      -3.34400000       2.57640000
H       -3.17950000      -2.75620000       3.07400000
H       -3.04310000      -4.03850000       1.85430000
