19
Properties=species:S:1:pos:R:3 gdb_51173=T pbc="F F F"
O       -0.62910000       0.55030000       0.52630000
C        0.20330000       0.89640000      -0.27090000
C        1.21690000       2.00270000      -0.04100000
C        1.23850000       3.00330000      -1.17610000
C        2.00760000       2.73810000      -2.45140000
C        2.44170000       3.85030000      -1.53070000
C        1.89230000       5.22680000      -1.85570000
O        0.51080000       5.02400000      -2.14250000
C        0.04840000       3.94300000      -1.34290000
H        0.28480000       0.40570000      -1.26850000
H        0.99620000       2.47790000       0.92070000
H        2.20290000       1.52340000       0.03760000
H        2.62900000       1.84950000      -2.48290000
H        1.54640000       3.00520000      -3.39700000
H        3.37270000       3.76900000      -0.98170000
H        2.02810000       5.90250000      -0.99540000
H        2.33940000       5.69620000      -2.73800000
H       -0.81010000       3.50040000      -1.85970000
H       -0.28830000       4.28960000      -0.35100000
