19
Properties=species:S:1:pos:R:3 gdb_19355=T pbc="F F F"
C        0.10320000       1.52050000      -0.16130000
C       -0.07800000       0.01210000       0.05970000
C        0.65940000      -0.49600000       1.26670000
C        2.10910000      -0.90710000       1.27830000
C        1.05130000      -1.91670000       1.65640000
C        0.48340000      -1.66500000       3.08260000
N        1.20980000      -0.52470000       3.70180000
C        0.11890000      -0.28390000       2.72170000
H        1.15760000       1.76790000      -0.32010000
H       -0.46300000       1.86440000      -1.03270000
H       -0.24170000       2.09190000       0.70730000
H       -1.14840000      -0.21690000       0.15920000
H        0.26870000      -0.53510000      -0.82590000
H        2.53360000      -1.06100000       0.29020000
H        2.79550000      -0.52650000       2.02370000
H        0.88780000      -2.83370000       1.10440000
H       -0.03930000      -2.39160000       3.69090000
H        0.80940000      -0.38810000       4.62980000
H       -0.75220000       0.30470000       2.98180000
