16
Properties=species:S:1:pos:R:3 gdb_124716=T pbc="F F F"
C       -0.65520000       1.38900000       0.27740000
C       -0.00640000       0.05370000      -0.01180000
N        0.19020000      -0.73540000       1.09010000
N        0.34660000      -0.43690000      -1.14870000
C        0.11260000       0.18150000      -2.34920000
N        0.70020000      -0.29730000      -3.44890000
N        0.22880000       0.53060000      -4.41190000
C       -0.60530000       1.44520000      -3.88610000
N       -0.71080000       1.26540000      -2.58730000
H       -0.13490000       2.18810000      -0.25180000
H       -1.68150000       1.39590000      -0.09630000
H       -0.66510000       1.60170000       1.35010000
H        0.23280000      -0.31270000       2.00100000
H        0.74110000      -1.56730000       0.94320000
H        0.51140000       0.39530000      -5.36780000
H       -1.10360000       2.20230000      -4.47400000
