19
Properties=species:S:1:pos:R:3 gdb_112754=T pbc="F F F"
C        0.18920000       1.66390000      -0.36300000
O       -0.33410000       0.36700000      -0.55690000
C        0.57540000      -0.52160000      -1.14190000
C        1.65760000      -1.20200000      -0.24070000
C        1.30250000      -2.57200000      -0.90120000
O        1.23360000      -3.73510000      -0.12010000
C        0.01330000      -1.91440000      -1.40850000
C       -1.36440000      -2.36510000      -1.20980000
O       -0.76680000      -2.30650000      -2.51490000
H        1.04360000       1.66290000       0.33000000
H        0.51440000       2.11460000      -1.31320000
H       -0.60970000       2.27480000       0.06360000
H        1.02000000      -0.08620000      -2.05000000
H        2.68960000      -0.85890000      -0.32000000
H        1.34030000      -1.17830000       0.80670000
H        1.97680000      -2.80750000      -1.72990000
H        0.65220000      -3.55660000       0.62700000
H       -1.54830000      -3.37060000      -0.83360000
H       -2.13930000      -1.62720000      -1.01600000
