23
Properties=species:S:1:pos:R:3 gdb_120134=T pbc="F F F"
C        0.92220000       2.09160000       3.14150000
C        0.46080000       0.71520000       2.67150000
C       -0.15760000       0.50950000       1.24560000
C        0.78570000      -0.68290000       1.02520000
C        2.23040000      -0.27720000       1.07790000
C        2.83630000       0.97000000       0.46480000
C        4.13160000       1.38730000       1.15190000
O        4.62920000       2.53830000       0.48410000
C        1.46800000      -0.41120000       2.37730000
H        1.61420000       2.56780000       2.44240000
H        0.06570000       2.76390000       3.26740000
H        1.42810000       2.01970000       4.11130000
H       -0.25830000       0.33040000       3.40300000
H       -1.21220000       0.22830000       1.28060000
H       -0.05120000       1.34070000       0.54110000
H        0.47990000      -1.63380000       0.60460000
H        2.87680000      -1.14570000       0.94440000
H        3.05370000       0.78180000      -0.59420000
H        2.14420000       1.81540000       0.48660000
H        3.93580000       1.59430000       2.21570000
H        4.85750000       0.55810000       1.11170000
H        5.44220000       2.81020000       0.91940000
H        1.78900000      -1.13260000       3.12160000
