19
Properties=species:S:1:pos:R:3 gdb_39978=T pbc="F F F"
C        0.02580000       1.51640000      -0.01510000
N        1.25210000       0.69690000       0.05990000
C       -0.06090000       0.03970000       0.01420000
C       -0.46980000      -0.80890000       1.22180000
C       -0.69580000      -2.17850000       0.59220000
C       -1.69270000      -2.35060000      -0.49620000
C       -2.02270000      -1.03790000      -1.19110000
C       -0.49160000      -0.77290000      -1.18310000
N       -0.21500000      -2.23390000      -0.81380000
H       -0.19250000       2.09390000       0.87940000
H       -0.20740000       2.02790000      -0.94670000
H        1.70240000       0.65650000      -0.85200000
H        0.33870000      -0.83330000       1.95600000
H       -1.36830000      -0.42650000       1.71780000
H       -0.45260000      -3.06530000       1.16860000
H       -2.22730000      -3.28570000      -0.63530000
H       -2.39640000      -1.20560000      -2.20330000
H       -2.67520000      -0.32010000      -0.68270000
H       -0.03660000      -0.47290000      -2.12840000
