17
Properties=species:S:1:pos:R:3 gdb_27989=T pbc="F F F"
C       -0.03310000       1.50330000       0.07070000
C       -0.00820000       0.01550000      -0.02800000
C       -0.03150000      -0.77070000      -1.13550000
N        0.00970000      -2.08750000      -0.67200000
C        0.00330000      -3.22960000      -1.46550000
O       -0.03910000      -3.21060000      -2.66770000
C        0.05640000      -2.01630000       0.72090000
C        0.11030000      -3.20910000       1.61660000
N        0.04660000      -0.77760000       1.12130000
H        0.85900000       1.87460000       0.58640000
H       -0.07680000       1.96370000      -0.91940000
H       -0.90030000       1.84120000       0.64830000
H       -0.07230000      -0.56520000      -2.19070000
H        0.04170000      -4.15480000      -0.86680000
H        1.00140000      -3.82110000       1.43880000
H        0.13910000      -2.84980000       2.64590000
H       -0.76670000      -3.85510000       1.50010000
