17
Properties=species:S:1:pos:R:3 gdb_55069=T pbc="F F F"
C        0.39030000       1.11870000      -0.94950000
C        0.01730000       0.06890000       0.07680000
O        0.82740000      -0.45260000       0.80830000
C       -1.45090000      -0.27540000       0.13720000
O       -1.81300000      -1.52640000       0.71270000
C       -2.18080000      -0.35910000       1.43280000
C       -1.53630000      -0.15170000       2.78520000
C       -2.06580000      -1.14820000       3.80120000
O       -2.49790000      -0.85030000       4.88400000
H        1.44190000       1.38430000      -0.84150000
H        0.21160000       0.73300000      -1.96030000
H       -0.23580000       2.01130000      -0.83580000
H       -2.03350000       0.00560000      -0.74090000
H       -3.24720000      -0.12850000       1.38570000
H       -0.45690000      -0.31610000       2.68970000
H       -1.72250000       0.86050000       3.15600000
H       -2.01380000      -2.20800000       3.46810000
