14
Properties=species:S:1:pos:R:3 gdb_43065=T pbc="F F F"
O       -0.02440000      -0.00540000       0.16420000
C       -0.07250000       1.17500000       0.03160000
C       -1.15880000       2.27110000      -0.05540000
O       -1.38510000       2.63060000       1.31520000
C       -0.25780000       3.36110000       1.73240000
C        0.35700000       4.15650000       0.62700000
C        1.12000000       2.96970000       1.21770000
N        0.99090000       2.17160000      -0.04850000
C        0.00080000       3.22040000      -0.53060000
H       -2.11470000       2.14440000      -0.56410000
H       -0.35130000       3.74230000       2.74090000
H        0.55850000       5.21700000       0.59820000
H        2.01500000       2.92070000       1.82610000
H        0.06530000       3.52230000      -1.57250000
