29
Properties=species:S:1:pos:R:3 gdb_118220=T pbc="F F F"
C       -0.06400000       1.67040000      -0.11040000
C        0.02110000       0.15910000       0.12500000
C       -1.35150000      -0.52390000       0.08890000
C       -1.33220000      -2.06010000       0.22010000
C       -0.83050000      -2.51050000       1.60010000
C       -2.73410000      -2.62100000      -0.09410000
C       -2.89590000      -4.15330000      -0.12430000
C       -4.36810000      -4.52020000      -0.36100000
C       -2.00090000      -4.81760000      -1.18020000
H        0.92600000       2.13660000      -0.08240000
H       -0.51100000       1.89530000      -1.08530000
H       -0.68150000       2.15560000       0.65390000
H        0.66890000      -0.29360000      -0.63790000
H        0.51170000      -0.02510000       1.08810000
H       -1.98800000      -0.10330000       0.88140000
H       -1.84220000      -0.26150000      -0.85870000
H       -0.63150000      -2.44040000      -0.53680000
H       -0.76240000      -3.59990000       1.67060000
H        0.16330000      -2.11010000       1.81900000
H       -1.50940000      -2.16830000       2.39110000
H       -3.44150000      -2.21150000       0.64170000
H       -3.05520000      -2.22680000      -1.06920000
H       -2.61330000      -4.55270000       0.85890000
H       -4.51490000      -5.60540000      -0.34570000
H       -5.01720000      -4.08250000       0.40490000
H       -4.71150000      -4.15310000      -1.33590000
H       -0.93730000      -4.65230000      -0.98420000
H       -2.16630000      -5.89990000      -1.20810000
H       -2.21990000      -4.42360000      -2.18030000
