19
Properties=species:S:1:pos:R:3 gdb_73596=T pbc="F F F"
C        0.11080000       1.52350000      -0.01190000
C       -0.00780000       0.01880000       0.02240000
C       -1.37880000      -0.60640000      -0.22220000
C       -1.35640000      -1.95580000       0.53200000
C       -0.17740000      -1.82100000       1.53020000
N        0.69050000      -0.70870000       1.09070000
C        1.20630000      -0.81310000      -0.29660000
C        1.14190000      -2.02500000      -1.06990000
N        1.13140000      -2.99680000      -1.69880000
H        1.11780000       1.84580000       0.26390000
H       -0.11560000       1.90840000      -1.01190000
H       -0.59540000       1.97660000       0.69230000
H       -2.13650000       0.06820000       0.19070000
H       -1.59920000      -0.72540000      -1.28680000
H       -2.29890000      -2.14750000       1.05030000
H       -1.19230000      -2.78440000      -0.15740000
H       -0.53180000      -1.55030000       2.52960000
H        0.40740000      -2.74020000       1.62400000
H        2.15030000      -0.29050000      -0.43260000
