19
Properties=species:S:1:pos:R:3 gdb_14712=T pbc="F F F"
C        0.09430000       1.50140000       0.07740000
C       -0.02650000      -0.00980000       0.12600000
O        0.80850000      -0.48290000       1.19010000
C        0.84830000      -1.81450000       1.36170000
N        1.54640000      -2.32750000       2.27500000
C        1.57150000      -3.77460000       2.39530000
C        3.03360000      -4.23000000       2.44810000
O        3.72980000      -3.58730000       3.49300000
H        1.12970000       1.79870000      -0.10900000
H       -0.53340000       1.90160000      -0.72390000
H       -0.22560000       1.94320000       1.02480000
H       -1.06560000      -0.31420000       0.31040000
H        0.29490000      -0.45920000      -0.82320000
H        0.23120000      -2.38940000       0.65350000
H        1.09070000      -4.05120000       3.34240000
H        1.03940000      -4.28970000       1.57760000
H        3.08470000      -5.30850000       2.63390000
H        3.50340000      -4.03580000       1.46870000
H        3.46820000      -2.65830000       3.43880000
