21
Properties=species:S:1:pos:R:3 gdb_105254=T pbc="F F F"
C        0.94380000       1.45760000       0.30790000
C        0.08640000       0.24670000      -0.07960000
C        0.55690000      -0.46400000      -1.34010000
C        1.76460000      -1.38090000      -1.26610000
C        0.38140000      -1.95800000      -1.44170000
O       -0.25100000      -2.60730000      -0.37660000
C        0.34430000       0.31380000      -2.60850000
C        1.40890000       1.07430000      -3.27810000
O        0.96370000      -0.18180000      -3.79790000
H        1.98530000       1.16520000       0.47910000
H        0.93970000       2.22440000      -0.47340000
H        0.57020000       1.91960000       1.22710000
H        0.06410000      -0.47810000       0.73810000
H       -0.95450000       0.56730000      -0.22390000
H        2.43660000      -1.41980000      -2.11620000
H        2.22840000      -1.49850000      -0.29200000
H        0.13770000      -2.35130000      -2.42800000
H        0.18820000      -3.45380000      -0.24490000
H       -0.68320000       0.65350000      -2.75980000
H        1.15860000       1.94310000      -3.88480000
H        2.41170000       1.07100000      -2.85450000
