19
Properties=species:S:1:pos:R:3 gdb_68142=T pbc="F F F"
O       -0.07950000       1.39540000      -0.00550000
C       -0.01210000       0.00600000       0.01940000
C        0.32220000      -0.80940000       1.30990000
C       -0.43740000      -1.93490000       0.53310000
C       -1.33890000      -0.78570000      -0.03360000
C        0.52590000      -2.18620000      -0.66230000
C        0.84280000      -0.71000000      -1.04730000
C       -0.99070000      -3.08490000       1.19780000
C       -1.44780000      -4.05340000       1.74600000
H        0.81620000       1.74380000      -0.07020000
H        1.37000000      -0.99190000       1.56660000
H       -0.23670000      -0.45470000       2.17720000
H       -2.06350000      -0.43040000       0.70050000
H       -1.81360000      -0.94250000      -1.00590000
H        1.40880000      -2.75050000      -0.35210000
H        0.03250000      -2.74070000      -1.46410000
H        0.52260000      -0.44990000      -2.06000000
H        1.90650000      -0.46560000      -0.95140000
H       -1.85310000      -4.90500000       2.23350000
