20
Properties=species:S:1:pos:R:3 gdb_52625=T pbc="F F F"
C        0.02200000       1.46170000       0.07780000
C        0.01720000       0.00630000       0.02780000
C        0.00830000      -1.19680000      -0.02190000
C       -0.00490000      -2.66320000      -0.08640000
C       -1.46250000      -3.17760000      -0.07400000
C        0.72460000      -3.14040000      -1.36300000
N        0.71320000      -3.14820000       1.11790000
C        0.92470000      -4.44800000       1.43980000
O        0.56270000      -5.41480000       0.79830000
H        1.04310000       1.85810000       0.07500000
H       -0.49970000       1.88470000      -0.78750000
H       -0.47800000       1.83200000       0.97930000
H       -1.99400000      -2.80550000      -0.95360000
H       -1.46360000      -4.26860000      -0.08340000
H       -1.98190000      -2.82480000       0.82050000
H        1.74940000      -2.76140000      -1.37870000
H        0.74440000      -4.23110000      -1.38480000
H        0.20310000      -2.76820000      -2.24860000
H        1.07020000      -2.44370000       1.74320000
H        1.48740000      -4.53890000       2.39160000
