15
Properties=species:S:1:pos:R:3 gdb_62435=T pbc="F F F"
C       -0.05910000       1.56520000       0.00530000
C        0.03420000       0.05040000       0.04650000
C       -1.12780000      -0.64060000      -0.45030000
N       -2.05930000      -1.19860000      -0.85080000
C        1.32830000      -0.71000000      -0.22910000
O        2.52240000       0.04270000      -0.12700000
C        2.60230000       0.40510000       1.18260000
N        1.69000000       0.01700000       1.98040000
C        0.76130000      -0.72990000       1.17190000
H        0.78100000       2.03080000       0.52120000
H       -0.07010000       1.91960000      -1.02900000
H       -0.97870000       1.89630000       0.49420000
H        1.38050000      -1.51370000      -0.95080000
H        3.46420000       1.00920000       1.43610000
H        0.25110000      -1.56270000       1.63760000
