14
Properties=species:S:1:pos:R:3 gdb_23743=T pbc="F F F"
N       -0.00680000       1.41840000       0.15000000
C       -0.02490000       0.02880000       0.05060000
C       -1.20670000      -0.71990000       0.03550000
C       -1.17090000      -2.11130000      -0.00470000
C        0.04380000      -2.79040000      -0.03070000
C        1.23400000      -2.06220000      -0.02030000
C        1.18030000      -0.68300000       0.01890000
F        2.32140000       0.03630000       0.01680000
H        0.85980000       1.83750000      -0.15430000
H       -0.81240000       1.88020000      -0.24530000
H       -2.15830000      -0.19750000       0.06030000
H       -2.10340000      -2.66530000      -0.01550000
H        0.07240000      -3.87320000      -0.06090000
H        2.20350000      -2.54640000      -0.04590000
