18
Properties=species:S:1:pos:R:3 gdb_35867=T pbc="F F F"
N        0.01200000      -1.23110000       0.15540000
C        0.01170000      -0.07660000       0.09790000
C        0.01010000       1.38360000       0.00270000
C       -0.59570000       2.04480000       1.26980000
O        0.49220000       2.20570000       2.15290000
C        1.58690000       2.65730000       1.36960000
C        1.43480000       1.98130000      -0.00140000
C        2.58520000       1.29980000      -0.68840000
C        2.03150000       2.58900000      -1.24270000
H       -0.55110000       1.66290000      -0.89400000
H       -1.03380000       3.01610000       0.98900000
H       -1.35650000       1.43750000       1.76210000
H        1.55830000       3.75430000       1.26530000
H        2.50700000       2.38040000       1.89100000
H        3.55100000       1.32550000      -0.19440000
H        2.38420000       0.37800000      -1.22390000
H        1.46070000       2.54790000      -2.16470000
H        2.61920000       3.49460000      -1.12480000
