17
Properties=species:S:1:pos:R:3 gdb_10414=T pbc="F F F"
C        0.13080000       1.54640000       0.00380000
O        0.21820000       0.13750000      -0.15160000
C        0.55620000      -0.56500000       1.01120000
C       -0.49430000      -0.64020000       2.17390000
C       -0.23330000      -2.16780000       2.25700000
C        0.42170000      -2.10510000       0.85200000
C        1.89070000      -0.17250000       1.50710000
N        2.93220000       0.14490000       1.89600000
H        1.09450000       1.98110000       0.29910000
H       -0.16170000       1.94720000      -0.96820000
H       -0.62750000       1.82360000       0.74900000
H       -0.31690000      -0.03420000       3.06320000
H       -1.48200000      -0.41420000       1.76380000
H        0.49040000      -2.41630000       3.03640000
H       -1.10480000      -2.81370000       2.36950000
H       -0.29300000      -2.29990000       0.04950000
H        1.33630000      -2.67110000       0.67380000
