17
Properties=species:S:1:pos:R:3 gdb_51790=T pbc="F F F"
N       -0.19580000       1.28570000       0.21230000
C       -0.11690000       0.03090000       0.11900000
O       -1.24710000      -0.71190000       0.09270000
C       -1.06630000      -2.10400000      -0.00630000
O       -0.55330000      -2.60540000       1.21260000
C       -1.17030000      -3.84720000       1.55680000
C       -2.45000000      -3.91080000       0.74830000
N       -3.27220000      -2.70450000       0.93740000
C       -2.38520000      -2.80690000      -0.23510000
H        0.73820000       1.69080000       0.21150000
H        0.80200000      -0.56520000       0.05100000
H       -0.36280000      -2.31790000      -0.82880000
H       -0.51380000      -4.69080000       1.29840000
H       -1.34070000      -3.84680000       2.63790000
H       -2.90980000      -4.86690000       0.52470000
H       -4.22800000      -2.89000000       0.64340000
H       -2.79250000      -2.86950000      -1.23710000
