16
Properties=species:S:1:pos:R:3 gdb_85637=T pbc="F F F"
O       -0.19310000       1.30380000       0.81840000
C        0.00040000       0.08840000       0.11090000
C        0.82430000      -0.85100000       1.01210000
C       -0.21710000      -1.78990000       1.59600000
C       -1.40470000      -1.67370000       0.98990000
C       -1.37920000      -0.63350000      -0.10200000
O       -2.47460000       0.26170000      -0.07340000
C        0.08950000      -2.69770000       2.64700000
N        0.37100000      -3.42550000       3.50300000
H       -0.69560000       1.88800000       0.23890000
H        0.50230000       0.27870000      -0.84530000
H        1.57030000      -1.41070000       0.43730000
H        1.35950000      -0.28290000       1.77780000
H       -2.29230000      -2.24790000       1.22640000
H       -1.42160000      -1.10900000      -1.08940000
H       -2.44760000       0.68990000       0.79180000
