18
Properties=species:S:1:pos:R:3 gdb_65938=T pbc="F F F"
C       -0.15960000       1.54240000       0.08960000
C       -0.04050000       0.01600000       0.02380000
C        1.18790000      -0.50460000      -0.78350000
O        1.86590000      -0.90430000       0.42250000
C        0.70760000      -0.63410000       1.20790000
C        0.78360000      -0.22800000       2.63790000
C        0.20410000      -1.58180000       2.24080000
C       -1.31640000      -0.60370000      -0.31370000
N       -2.33240000      -1.09320000      -0.56870000
H        0.80900000       1.97320000       0.35550000
H       -0.47460000       1.94820000      -0.87590000
H       -0.89310000       1.84580000       0.84150000
H        0.97520000      -1.35450000      -1.44020000
H        1.73780000       0.26640000      -1.33240000
H        1.77070000      -0.21640000       3.08780000
H        0.10910000       0.53980000       3.00280000
H       -0.86700000      -1.73500000       2.32400000
H        0.80970000      -2.46100000       2.43130000
