17
Properties=species:S:1:pos:R:3 gdb_37439=T pbc="F F F"
C       -0.00980000       1.54970000       0.02300000
O        1.31190000       2.08650000       0.01360000
C        2.32330000       1.07490000      -0.03150000
C        2.12580000       0.13310000       1.14640000
C        0.91260000      -0.42610000       1.15610000
C        0.04200000       0.00090000      -0.01500000
C        0.80690000      -0.39530000      -1.29200000
O        1.12180000       0.65310000      -2.22210000
C        2.12830000       0.21870000      -1.30280000
H       -0.52320000       1.88050000       0.93480000
H       -0.54490000       1.93140000      -0.85210000
H        3.27800000       1.60170000      -0.01810000
H        2.87950000       0.00310000       1.91380000
H        0.53700000      -1.07190000       1.94150000
H       -0.96510000      -0.41880000       0.02000000
H        0.61130000      -1.36870000      -1.73520000
H        2.99850000      -0.26380000      -1.74180000
