12
Properties=species:S:1:pos:R:3 gdb_130911=T pbc="F F F"
O       -0.06970000       0.02410000      -0.00120000
C        0.00800000       1.22480000       0.00670000
C        1.28420000       1.98800000      -0.00100000
N        2.45280000       1.38640000      -0.01780000
O        3.39260000       2.39650000      -0.02030000
C        2.77960000       3.58560000      -0.00490000
C        1.42430000       3.42000000       0.00840000
C        0.40950000       4.40040000       0.02660000
C       -0.46720000       5.22480000       0.04220000
H       -0.88980000       1.87590000       0.02080000
H        3.41610000       4.45590000      -0.00510000
H       -1.23810000       5.95560000       0.05620000
