19
Properties=species:S:1:pos:R:3 gdb_82989=T pbc="F F F"
C       -0.13590000       1.59370000      -0.03840000
C        0.03150000       0.08490000       0.01090000
C        1.19570000      -0.59050000      -0.76260000
O        2.35420000       0.10110000      -0.26430000
C        2.20760000      -0.13990000       1.15820000
C        2.99560000      -1.42050000       1.42070000
O        2.28110000      -2.39980000       0.64520000
C        1.07880000      -1.78500000       0.25060000
C        0.72850000      -0.61300000       1.21010000
H        0.82910000       2.09760000       0.05510000
H       -0.58640000       1.90560000      -0.98690000
H       -0.78940000       1.94370000       0.76790000
H       -0.91380000      -0.42620000      -0.20130000
H        1.25030000      -0.68440000      -1.84610000
H        2.50130000       0.73830000       1.73410000
H        4.02240000      -1.34110000       1.05240000
H        3.00930000      -1.71110000       2.48200000
H        0.31420000      -2.53030000       0.03770000
H        0.27130000      -0.75130000       2.18900000
