20
Properties=species:S:1:pos:R:3 gdb_97505=T pbc="F F F"
C       -0.22580000       1.51370000       0.11200000
C        0.10770000       0.01130000       0.07420000
C        0.75590000      -0.41100000      -1.16080000
C        1.29100000      -0.74970000      -2.18800000
C        1.90650000      -1.32030000      -3.37710000
O        1.96130000      -2.53180000      -3.52640000
N        2.40560000      -0.42780000      -4.29230000
C        3.02900000      -0.93630000      -5.49970000
C        2.35820000       1.01140000      -4.14450000
H        0.68130000       2.11680000       0.01700000
H       -0.89980000       1.78320000      -0.70550000
H       -0.71180000       1.77030000       1.05750000
H        0.75850000      -0.24580000       0.91990000
H       -0.80860000      -0.57660000       0.21290000
H        2.50210000      -0.56940000      -6.38980000
H        4.07430000      -0.60790000      -5.56250000
H        2.98980000      -2.02410000      -5.47510000
H        1.87460000       1.27240000      -3.20410000
H        3.37090000       1.43580000      -4.15050000
H        1.79620000       1.46910000      -4.96940000
