25
Properties=species:S:1:pos:R:3 gdb_57485=T pbc="F F F"
C        0.02440000       1.59540000       0.10070000
C        0.00070000       0.05630000       0.02370000
C        0.80280000      -0.51380000       1.21120000
C       -1.45860000      -0.42540000       0.14080000
C        0.60560000      -0.49430000      -1.29740000
C       -0.04560000      -0.00980000      -2.62780000
C        1.15930000       0.39760000      -3.50260000
O        2.28980000      -0.25010000      -2.93990000
C        2.10560000      -0.20010000      -1.53560000
H        1.04120000       1.99720000       0.05950000
H       -0.55190000       2.05770000      -0.70650000
H       -0.41840000       1.92840000       1.04560000
H        0.35860000      -0.20380000       2.16340000
H        0.81560000      -1.60930000       1.19100000
H        1.84080000      -0.16570000       1.20440000
H       -2.07850000      -0.03700000      -0.67360000
H       -1.51650000      -1.51930000       0.11310000
H       -1.90350000      -0.09160000       1.08460000
H        0.49780000      -1.58430000      -1.25220000
H       -0.61630000      -0.81640000      -3.09370000
H       -0.73130000       0.82850000      -2.48400000
H        1.07680000       0.08330000      -4.54630000
H        1.29720000       1.49150000      -3.48390000
H        2.38430000       0.79380000      -1.14820000
H        2.77260000      -0.93970000      -1.08650000
