17
Properties=species:S:1:pos:R:3 gdb_95103=T pbc="F F F"
C        0.17350000       1.59460000      -0.09100000
C        0.07090000       0.08230000      -0.00090000
O        0.74650000      -0.49390000      -1.11640000
C        1.26230000      -1.77260000      -0.77640000
C        1.53100000      -1.71930000       0.71460000
N        2.23540000      -0.49670000       1.11970000
C        0.75470000      -0.54990000       1.21670000
C        0.11020000      -0.53800000       2.49630000
N       -0.41380000      -0.50050000       3.52740000
H        1.22070000       1.89950000      -0.03150000
H       -0.24220000       1.93960000      -1.04090000
H       -0.38710000       2.06410000       0.72290000
H       -0.98560000      -0.23210000       0.01440000
H        0.53980000      -2.57660000      -0.98790000
H        2.16260000      -1.93790000      -1.37580000
H        1.63330000      -2.62950000       1.29510000
H        2.63590000      -0.62360000       2.04720000
