12
Properties=species:S:1:pos:R:3 gdb_23724=T pbc="F F F"
F        0.04870000       0.02830000      -0.28250000
C       -0.02430000       1.33410000      -0.03260000
C       -1.22070000       1.96380000       0.03300000
N       -1.23040000       3.30570000       0.29290000
C       -0.07790000       4.06550000       0.49500000
N       -0.19000000       5.32150000       0.73350000
C        1.13410000       3.24530000       0.39310000
N        1.15490000       1.97350000       0.14730000
H       -2.17020000       1.46670000      -0.10840000
H       -2.10280000       3.81100000       0.34970000
H        0.72890000       5.74180000       0.85850000
H        2.08640000       3.75270000       0.53670000
