27
Properties=species:S:1:pos:R:3 gdb_104846=T pbc="F F F"
C        0.56160000       1.53640000       0.18060000
C        0.17120000       0.06490000      -0.00700000
C        0.58830000      -0.55130000      -1.35480000
C        0.05410000       0.22590000      -2.56580000
C       -1.47340000       0.32550000      -2.65840000
C        2.12510000      -0.84580000      -1.40020000
C        1.84450000      -2.32380000      -1.03120000
C        0.35530000      -2.11250000      -1.41210000
C       -0.71570000      -2.79700000      -0.57200000
H        1.63460000       1.69340000       0.02640000
H        0.02920000       2.19320000      -0.51430000
H        0.32290000       1.87160000       1.19490000
H        0.62360000      -0.52190000       0.80200000
H       -0.91280000      -0.03690000       0.12550000
H        0.48660000       1.23470000      -2.57330000
H        0.43200000      -0.26280000      -3.47320000
H       -1.93770000      -0.66650000      -2.67250000
H       -1.90010000       0.87800000      -1.81540000
H       -1.77440000       0.84240000      -3.57510000
H        2.53060000      -0.73990000      -2.41100000
H        2.75990000      -0.27440000      -0.71740000
H        2.39610000      -3.09380000      -1.57670000
H        1.96820000      -2.51460000       0.03980000
H        0.21040000      -2.39240000      -2.46300000
H       -0.61420000      -2.56090000       0.49210000
H       -1.72670000      -2.51050000      -0.88210000
H       -0.63810000      -3.88580000      -0.67320000
