15
Properties=species:S:1:pos:R:3 gdb_2674=T pbc="F F F"
C        0.00120000       1.56730000       0.01040000
C        0.01510000       0.03790000       0.00200000
C       -1.40910000      -0.55510000       0.01260000
C       -1.43860000      -2.00930000       0.00500000
C       -1.45480000      -3.21770000      -0.00130000
C       -1.43620000      -4.65620000      -0.00920000
O       -2.42150000      -5.35900000      -0.00390000
H        1.01830000       1.96940000       0.00280000
H       -0.52120000       1.96510000      -0.86660000
H       -0.50410000       1.95550000       0.90170000
H        0.54510000      -0.33150000      -0.88260000
H        0.56220000      -0.34100000       0.87220000
H       -1.95480000      -0.19450000       0.89520000
H       -1.97170000      -0.18500000      -0.85530000
H       -0.41710000      -5.09490000      -0.02090000
