17
Properties=species:S:1:pos:R:3 gdb_46540=T pbc="F F F"
O        0.17530000      -0.04860000       0.24080000
C        0.03270000       1.13550000       0.17610000
C       -1.24990000       1.93390000      -0.03300000
C       -0.87580000       3.35610000       0.36970000
C       -1.69950000       4.56620000      -0.11650000
C       -2.02740000       4.77090000       1.37520000
O       -1.21140000       3.64030000       1.75140000
C        0.64080000       3.36040000       0.13040000
O        1.08090000       2.00410000       0.26940000
H       -1.51700000       1.87590000      -1.09470000
H       -2.07140000       1.52280000       0.55390000
H       -1.11180000       5.36250000      -0.57870000
H       -2.54460000       4.32470000      -0.76300000
H       -1.66540000       5.70320000       1.82270000
H       -3.07720000       4.62550000       1.65390000
H        0.88460000       3.71540000      -0.87900000
H        1.16020000       3.97270000       0.87030000
