24
Properties=species:S:1:pos:R:3 gdb_99268=T pbc="F F F"
C        0.18430000       1.37160000       0.19320000
C        0.01460000      -0.12760000      -0.05640000
C        0.92720000      -0.62960000      -1.17600000
O        2.02260000      -0.13990000      -1.39160000
N        0.42950000      -1.68100000      -1.89330000
C        1.16650000      -2.34190000      -2.95680000
C        1.55330000      -3.79830000      -2.63920000
C        2.19890000      -4.44200000      -3.87270000
C        2.46970000      -3.89100000      -1.41400000
H        1.24060000       1.60650000       0.33800000
H       -0.17100000       1.95630000      -0.66080000
H       -0.37610000       1.68560000       1.07820000
H        0.28440000      -0.68760000       0.84890000
H       -1.03150000      -0.37610000      -0.27180000
H       -0.48690000      -2.02750000      -1.66030000
H        0.57280000      -2.31560000      -3.88020000
H        2.06340000      -1.73820000      -3.12090000
H        0.62590000      -4.34840000      -2.41690000
H        3.12650000      -3.92390000      -4.14290000
H        2.44810000      -5.49080000      -3.68420000
H        1.53260000      -4.40620000      -4.74150000
H        2.70640000      -4.93410000      -1.18070000
H        3.41260000      -3.36190000      -1.59180000
H        2.00220000      -3.44640000      -0.53090000
