18
Properties=species:S:1:pos:R:3 gdb_87290=T pbc="F F F"
C       -0.12120000       1.58700000       0.26060000
N       -0.11070000       0.13580000       0.43330000
C        0.98350000      -0.62260000      -0.11140000
C        0.81520000      -0.50750000       1.38680000
C        1.83830000       0.29490000       2.12280000
O        2.49240000       1.19850000       1.65600000
C        0.23610000      -1.66090000       2.16640000
C       -1.20680000      -1.81570000       2.39850000
O       -0.51840000      -2.61660000       1.43270000
H        0.87210000       2.04810000       0.27840000
H       -0.59940000       1.79650000      -0.70090000
H       -0.73350000       2.03440000       1.04930000
H        0.72080000      -1.57380000      -0.56430000
H        1.82500000      -0.08230000      -0.54140000
H        1.96350000       0.00240000       3.18970000
H        0.92520000      -2.09990000       2.89140000
H       -1.55780000      -2.34820000       3.28100000
H       -1.88020000      -1.07460000       1.97630000
