18
Properties=species:S:1:pos:R:3 gdb_19855=T pbc="F F F"
C       -0.01910000       1.45400000      -0.03500000
C        1.31670000       0.76740000       0.04080000
C        0.01600000      -0.04120000       0.09320000
C        0.37730000      -0.71350000      -1.26010000
C       -0.34180000      -0.29790000      -2.51160000
C        0.36680000       0.58200000      -3.22430000
C        1.70700000       0.92780000      -2.60320000
C        1.71290000       0.10520000      -1.29320000
H       -0.30620000       1.98220000       0.86890000
H       -0.36470000       1.92420000      -0.95110000
H        2.00990000       0.98050000       0.84630000
H       -0.43110000      -0.55460000       0.93600000
H        0.49700000      -1.79600000      -1.15900000
H       -1.32640000      -0.66350000      -2.78430000
H        0.03900000       1.02410000      -4.16050000
H        2.53640000       0.65910000      -3.27020000
H        1.80140000       2.00590000      -2.41650000
H        2.60600000      -0.51250000      -1.18670000
