16
Properties=species:S:1:pos:R:3 gdb_78564=T pbc="F F F"
C       -0.24640000       1.55440000      -0.05340000
C        0.07260000       0.10370000       0.02660000
C        0.67420000      -0.90430000      -0.85320000
C        1.42850000      -1.56930000       0.29610000
O        2.71450000      -1.00450000       0.36200000
C        0.37130000      -0.88640000       1.22990000
C       -0.90200000      -1.56050000       0.75540000
O       -1.78690000      -2.19430000       1.23700000
N       -0.81440000      -0.98700000      -0.58590000
H        0.62420000       2.15510000       0.22830000
H       -0.53660000       1.81930000      -1.07380000
H       -1.07390000       1.81270000       0.61530000
H        0.96610000      -0.84490000      -1.89420000
H        1.46220000      -2.66730000       0.32740000
H        3.17620000      -1.38950000       1.11380000
H        0.58490000      -0.66630000       2.27270000
