13
Properties=species:S:1:pos:R:3 gdb_103=T pbc="F F F"
C       -0.03350000       1.54670000      -0.13370000
C       -0.04970000       0.05910000       0.10860000
O        1.17260000      -0.65890000      -0.09930000
C        0.62650000      -0.62550000       1.22490000
C        1.43850000       0.05650000       2.29620000
H        0.84260000       2.02420000       0.30900000
H       -0.02020000       1.75200000      -1.20940000
H       -0.93420000       2.01070000       0.28320000
H       -0.92260000      -0.44790000      -0.31000000
H        0.19590000      -1.58040000       1.53660000
H        1.84120000       1.01300000       1.95810000
H        0.82510000       0.22930000       3.18750000
H        2.28150000      -0.57800000       2.58960000
