22
Properties=species:S:1:pos:R:3 gdb_121881=T pbc="F F F"
C        0.35110000       1.57390000       0.12190000
C        0.75570000       0.09840000       0.07320000
C        0.63760000      -0.58020000       1.43130000
O        1.00890000      -1.94040000       1.29240000
C        1.05980000      -2.68360000       2.50260000
C       -0.32160000      -3.09680000       3.01360000
C        1.94250000      -3.92800000       2.29450000
N        2.59640000      -3.96830000       1.10880000
O        2.03850000      -4.77660000       3.16160000
H        0.98320000       2.13940000       0.81520000
H        0.44290000       2.03820000      -0.86390000
H       -0.68770000       1.69180000       0.44900000
H        0.12660000      -0.44420000      -0.64180000
H        1.78920000      -0.00030000      -0.27940000
H        1.29290000      -0.08520000       2.16790000
H       -0.39410000      -0.49540000       1.80550000
H        1.56810000      -2.08520000       3.27670000
H       -0.19690000      -3.77170000       3.86220000
H       -0.90580000      -2.22970000       3.33260000
H       -0.87290000      -3.61950000       2.22600000
H        2.42010000      -3.25650000       0.42100000
H        3.16670000      -4.76900000       0.89600000
