18
Properties=species:S:1:pos:R:3 gdb_37670=T pbc="F F F"
C       -0.00270000       1.57330000       0.10200000
C        1.45570000       1.93570000      -0.10720000
C        2.13400000       0.87160000      -0.96020000
C        2.50750000       1.02660000       0.49430000
N        2.15600000      -0.19510000       1.22900000
C        0.74780000      -0.62880000       1.17300000
C        1.77270000      -1.23420000       0.27600000
C        1.24740000      -0.37780000      -0.92110000
C        0.03130000       0.05070000       0.00130000
H       -0.39700000       1.90930000       1.06900000
H       -0.61720000       2.02450000      -0.68560000
H        1.72840000       2.98030000      -0.22310000
H        2.80040000       1.09480000      -1.78440000
H        3.45120000       1.46340000       0.79990000
H        0.29440000      -0.99060000       2.09030000
H        2.25990000      -2.20230000       0.27810000
H        1.01980000      -0.85190000      -1.87370000
H       -0.91560000      -0.42930000      -0.25100000
