18
Properties=species:S:1:pos:R:3 gdb_62125=T pbc="F F F"
O       -0.03860000       1.64870000      -0.05530000
C        0.16150000       0.23470000      -0.00780000
C        0.98580000      -0.23940000      -1.20720000
N        0.37810000       0.21600000      -2.44080000
C        0.27970000      -0.55600000      -3.55420000
O        0.71660000      -1.68180000      -3.66570000
C        0.78930000      -0.18460000       1.30400000
C       -0.02400000      -0.57500000       2.45890000
O        0.64290000      -1.55740000       1.66030000
H        0.81530000       2.07670000       0.08020000
H       -0.84160000      -0.19890000      -0.07340000
H        2.01690000       0.13850000      -1.11380000
H        1.04000000      -1.33010000      -1.23530000
H       -0.03610000       1.13550000      -2.43120000
H       -0.25660000      -0.03040000      -4.36940000
H        1.78770000       0.22300000       1.48920000
H        0.37010000      -0.44730000       3.46550000
H       -1.10950000      -0.56310000       2.37560000
