16
Properties=species:S:1:pos:R:3 gdb_29138=T pbc="F F F"
C        0.11420000       1.51910000       0.01650000
C        0.02590000       0.02230000      -0.02440000
C       -0.12870000      -0.67410000      -1.16690000
O       -0.20670000      -2.02490000      -1.18670000
C       -0.12940000      -2.75090000      -0.01480000
O       -0.20140000      -3.94990000      -0.05730000
C        0.04030000      -1.93410000       1.20880000
C        0.12840000      -2.68990000       2.49830000
N        0.11110000      -0.64350000       1.18930000
H        1.06310000       1.83630000       0.46140000
H        0.03830000       1.95200000      -0.98420000
H       -0.68680000       1.93470000       0.63660000
H       -0.20470000      -0.24620000      -2.15870000
H        0.96780000      -3.39320000       2.47330000
H        0.25150000      -1.99270000       3.32730000
H       -0.77150000      -3.29580000       2.64930000
