23
Properties=species:S:1:pos:R:3 gdb_101705=T pbc="F F F"
C       -0.38880000       1.48680000      -0.12860000
C        0.11120000       0.04390000       0.01770000
C        0.88080000      -0.39270000      -1.23000000
O        0.00580000      -0.33150000      -2.34890000
C        0.98470000      -0.16540000       1.26800000
C        0.26620000       0.08890000       2.57770000
C       -0.68430000      -0.95220000       3.14430000
C        0.63640000      -0.67310000       3.81810000
O        1.67710000      -1.60320000       3.71080000
H        0.45280000       2.19120000      -0.13530000
H       -0.93460000       1.60470000      -1.06720000
H       -1.05470000       1.76900000       0.69200000
H       -0.76270000      -0.61760000       0.09500000
H        1.75390000       0.26650000      -1.37350000
H        1.26340000      -1.41610000      -1.08680000
H        0.51330000      -0.53710000      -3.13880000
H        1.37520000      -1.18820000       1.27910000
H        1.86260000       0.49390000       1.20950000
H       -0.01740000       1.12290000       2.75130000
H       -1.60300000      -0.63380000       3.62500000
H       -0.75680000      -1.88980000       2.60140000
H        0.61680000      -0.12870000       4.76250000
H        1.43950000      -2.37340000       4.23690000
