20
Properties=species:S:1:pos:R:3 gdb_120071=T pbc="F F F"
C       -0.21940000       1.61570000       0.05430000
C       -0.05030000       0.09450000       0.03560000
C        0.66590000      -0.40470000      -1.22000000
N        0.75500000      -1.86610000      -1.23550000
C        1.88800000      -2.46050000      -0.46220000
C        1.97140000      -3.67710000      -1.42690000
O        3.40780000      -3.58230000      -1.63390000
C        2.98670000      -2.19200000      -1.56030000
C        1.62050000      -2.44210000      -2.30430000
H        0.74950000       2.12610000       0.01640000
H       -0.80740000       1.96010000      -0.80380000
H       -0.73270000       1.94640000       0.96220000
H        0.51170000      -0.22350000       0.92340000
H       -1.02650000      -0.39940000       0.09670000
H        0.09590000      -0.10260000      -2.10850000
H        1.65580000       0.08330000      -1.29950000
H        1.97210000      -2.43830000       0.62450000
H        1.49850000      -4.65540000      -1.36750000
H        3.75110000      -1.42270000      -1.66390000
H        1.38910000      -2.39190000      -3.36910000
