18
Properties=species:S:1:pos:R:3 gdb_34371=T pbc="F F F"
N        0.01170000      -1.04370000      -0.57490000
C        0.00010000       0.07200000      -0.26900000
C       -0.01180000       1.47270000       0.10900000
C       -0.41300000       2.43740000      -1.06440000
C        1.05800000       2.91340000      -1.19520000
C        1.39960000       2.18980000       0.14010000
C        1.30360000       3.02850000       1.38300000
C        0.19130000       2.80760000       2.08290000
C       -0.69260000       1.74360000       1.47650000
H       -0.84710000       1.95410000      -1.94050000
H       -1.09530000       3.21610000      -0.71690000
H        1.56990000       2.46720000      -2.05100000
H        1.22100000       3.99310000      -1.21250000
H        2.28930000       1.55450000       0.11870000
H        2.07830000       3.73860000       1.65240000
H       -0.07160000       3.30880000       3.00800000
H       -1.73030000       2.07270000       1.34290000
H       -0.72880000       0.84400000       2.10310000
