22
Properties=species:S:1:pos:R:3 gdb_82292=T pbc="F F F"
C        0.07760000       1.55130000      -0.02280000
C        0.03380000       0.02330000      -0.00670000
C       -1.42370000      -0.47100000      -0.03610000
C        0.80430000      -0.61750000      -1.20290000
C        1.29190000      -1.96410000      -0.68170000
N        2.51590000      -1.85700000       0.14350000
C        1.19640000      -1.97110000       0.80070000
C        0.72170000      -0.58540000       1.26880000
O        1.79770000       0.18210000       1.76680000
H        1.10470000       1.91160000       0.06190000
H       -0.35810000       1.94270000      -0.94900000
H       -0.48930000       1.97050000       0.81580000
H       -1.93250000      -0.13090000      -0.94450000
H       -1.47860000      -1.56560000      -0.01540000
H       -1.98510000      -0.09230000       0.82500000
H        0.15670000      -0.73120000      -2.07780000
H        1.65740000      -0.00150000      -1.50490000
H        1.15300000      -2.86700000      -1.26750000
H        2.99990000      -2.74990000       0.18010000
H        0.97430000      -2.86260000       1.37660000
H       -0.00690000      -0.66770000       2.08240000
H        2.57380000      -0.13050000       1.27530000
