19
Properties=species:S:1:pos:R:3 gdb_126803=T pbc="F F F"
C       -0.09210000       1.56010000      -0.04180000
C        0.02120000       0.03380000      -0.04780000
N        0.75640000      -0.47270000      -1.19320000
N        0.10950000      -0.64190000      -2.35920000
C        1.04820000      -1.03040000      -3.22370000
C        2.30760000      -1.10250000      -2.59980000
O        3.52480000      -1.46040000      -3.10720000
C        2.09730000      -0.73220000      -1.28350000
C        3.06760000      -0.63200000      -0.15510000
H        0.89390000       2.03090000       0.01610000
H       -0.58350000       1.90250000      -0.95610000
H       -0.68210000       1.89290000       0.81780000
H        0.51840000      -0.32330000       0.85870000
H       -0.97160000      -0.42120000      -0.08650000
H        0.78590000      -1.25050000      -4.24900000
H        3.41760000      -1.67850000      -4.03720000
H        3.12600000       0.38070000       0.26120000
H        2.82140000      -1.31300000       0.66860000
H        4.06160000      -0.89940000      -0.52050000
