18
Properties=species:S:1:pos:R:3 gdb_69582=T pbc="F F F"
C       -0.07510000       1.54110000       0.03760000
C        0.09170000       0.04540000       0.00230000
N       -0.73710000      -0.83550000       0.87470000
C        0.73510000      -0.76440000       1.07090000
C        1.48710000      -1.88240000       0.39320000
C        2.74520000      -2.44930000       0.90780000
O        1.52800000      -3.18730000       0.98380000
C        1.16880000      -1.74470000      -1.06090000
C        0.42030000      -0.66320000      -1.28530000
H        0.79680000       2.04530000      -0.39270000
H       -0.95580000       1.85120000      -0.53690000
H       -0.20040000       1.90000000       1.06420000
H       -1.16890000      -0.25940000       1.59780000
H        1.12390000      -0.32200000       1.98170000
H        3.49020000      -2.83290000       0.21100000
H        3.14140000      -2.09410000       1.85980000
H        1.49390000      -2.47460000      -1.79210000
H        0.04730000      -0.33390000      -2.24820000
