17
Properties=species:S:1:pos:R:3 gdb_56377=T pbc="F F F"
O        0.00850000       1.46600000      -0.05810000
C        0.00910000       0.03770000       0.04400000
C        0.64920000      -0.55640000      -1.14660000
C        1.16890000      -1.00880000      -2.13090000
C        0.75230000      -0.38580000       1.24670000
C        1.37470000      -0.69740000       2.22630000
C       -1.46370000      -0.36670000       0.09310000
C       -1.91450000      -1.65790000       0.71720000
C       -2.24020000      -0.34250000       1.38010000
H        0.92280000       1.74690000      -0.18250000
H        1.62780000      -1.41590000      -2.99810000
H        1.92800000      -0.97430000       3.08990000
H       -1.97810000      -0.04140000      -0.80460000
H       -2.70560000      -2.20710000       0.21970000
H       -1.16220000      -2.27920000       1.18980000
H       -1.70240000      -0.09590000       2.28810000
H       -3.25880000       0.02630000       1.34240000
