19
Properties=species:S:1:pos:R:3 gdb_110985=T pbc="F F F"
C       -0.27320000       1.34080000       0.07690000
O        0.38560000       0.10890000      -0.12160000
C        0.85760000      -0.46050000       1.05360000
C       -0.06730000      -1.39890000       1.88420000
O       -0.02980000      -2.38190000       0.78810000
C        1.38060000      -1.91350000       0.90610000
C        2.40200000      -2.45710000      -0.03870000
C        1.21480000      -2.09920000       2.43550000
O        2.13150000      -1.43970000       3.26480000
H        0.37860000       2.07430000       0.57690000
H       -0.54670000       1.72390000      -0.90880000
H       -1.18730000       1.22530000       0.67780000
H        1.48390000       0.23050000       1.63150000
H       -1.02960000      -1.21520000       2.36210000
H        2.18340000      -2.13130000      -1.05950000
H        3.39620000      -2.09390000       0.23960000
H        2.40920000      -3.55060000      -0.00980000
H        1.03140000      -3.14200000       2.71350000
H        1.88380000      -1.59950000       4.18060000
