19
Properties=species:S:1:pos:R:3 gdb_111908=T pbc="F F F"
C        0.00990000       1.58270000      -0.01200000
C        0.03610000       0.05390000      -0.01560000
C        0.69370000      -0.53340000       1.24170000
N       -0.06820000      -0.26350000       2.46780000
C       -0.31500000      -1.39590000       3.00950000
C       -1.07330000      -1.59950000       4.27850000
N        0.19410000      -2.49860000       2.31410000
C        0.83660000      -2.06180000       1.16220000
O        1.35980000      -2.74990000       0.32030000
H        1.02520000       1.99420000       0.00770000
H       -0.48850000       1.96600000      -0.90750000
H       -0.52100000       1.95850000       0.86640000
H       -0.98490000      -0.33960000      -0.09020000
H        0.58690000      -0.32770000      -0.88240000
H        1.69890000      -0.10130000       1.34670000
H       -1.95420000      -2.22950000       4.11160000
H       -0.45020000      -2.09740000       5.02980000
H       -1.39290000      -0.63120000       4.66350000
H        0.07930000      -3.46880000       2.55930000
