21
Properties=species:S:1:pos:R:3 gdb_75490=T pbc="F F F"
C       -0.03250000       1.52240000       0.07020000
C        0.00170000       0.02170000      -0.02550000
C        0.00410000      -0.62450000      -1.19430000
C        0.02530000      -2.12390000      -1.33980000
C       -0.41730000      -2.82950000      -0.04850000
C        0.28480000      -2.20720000       1.13760000
C        0.69920000      -3.01440000       2.28930000
O        1.65560000      -2.61780000       1.30220000
C        0.03230000      -0.71930000       1.29560000
H        0.85540000       1.90740000       0.58860000
H       -0.07890000       1.98920000      -0.91730000
H       -0.90090000       1.86380000       0.64940000
H        0.00030000      -0.04500000      -2.11550000
H       -0.61810000      -2.42900000      -2.17370000
H        1.03880000      -2.45620000      -1.60590000
H       -1.50110000      -2.71320000       0.07990000
H       -0.20050000      -3.90070000      -0.09440000
H        0.81510000      -2.54520000       3.26650000
H        0.46630000      -4.07890000       2.31630000
H        0.81280000      -0.30030000       1.94310000
H       -0.91920000      -0.55780000       1.82560000
