20
Properties=species:S:1:pos:R:3 gdb_64807=T pbc="F F F"
C       -0.23140000       1.75610000      -0.43130000
C       -0.06310000       0.27460000      -0.13980000
C        0.98170000      -0.47280000      -1.01330000
C        1.76870000      -0.56960000       0.27210000
N        2.87960000      -1.05290000       0.59750000
O        0.82430000       0.08720000       1.03370000
C       -1.38350000      -0.42930000       0.06600000
C       -1.48610000      -1.71360000       0.84560000
C       -2.04730000      -0.43450000       1.41900000
H        0.74030000       2.24400000      -0.54820000
H       -0.80270000       1.89700000      -1.35490000
H       -0.77230000       2.24660000       0.38290000
H        0.65400000      -1.43180000      -1.41730000
H        1.45790000       0.11670000      -1.79870000
H        3.06460000      -0.91230000       1.59250000
H       -2.04160000      -0.33410000      -0.79420000
H       -2.17680000      -2.46970000       0.48960000
H       -0.58470000      -2.10410000       1.30330000
H       -1.49950000       0.01320000       2.24050000
H       -3.12300000      -0.30930000       1.46620000
