20
Properties=species:S:1:pos:R:3 gdb_66928=T pbc="F F F"
C        0.00210000       1.50330000       0.06640000
C       -0.05960000       0.00900000       0.03320000
C        0.11700000      -1.00980000       1.10150000
C       -0.42660000      -2.07370000       0.07930000
C        0.99610000      -2.07990000      -0.48800000
N        1.24100000      -0.74320000       0.15810000
C       -1.08150000      -0.87330000      -0.68550000
C       -2.51980000      -0.60370000      -0.25450000
O       -0.95920000      -0.84120000      -2.09520000
H        0.78590000       1.83540000       0.75190000
H        0.23200000       1.90010000      -0.92800000
H       -0.95020000       1.93490000       0.39290000
H        0.18450000      -0.94570000       2.17940000
H       -0.99970000      -2.97650000       0.28990000
H        1.65230000      -2.81220000      -0.01090000
H        1.11170000      -2.10340000      -1.57500000
H       -2.62340000      -0.61430000       0.83390000
H       -2.85940000       0.36760000      -0.62720000
H       -3.18970000      -1.37310000      -0.65890000
H       -1.70950000      -1.30640000      -2.48000000
