19
Properties=species:S:1:pos:R:3 gdb_61871=T pbc="F F F"
C       -0.06540000       1.54760000      -0.08200000
C        0.03930000       0.02700000      -0.07930000
C        0.74560000      -0.51690000       1.16590000
C        0.97390000      -2.01410000       1.12660000
O        2.00380000      -2.55050000       1.44490000
O       -1.28590000      -0.56370000      -0.07370000
C       -1.91030000      -0.68340000      -1.27000000
C       -3.26510000      -1.32560000      -1.09640000
O       -1.43140000      -0.32630000      -2.31580000
H        0.93360000       1.99370000      -0.06800000
H       -0.57980000       1.88710000      -0.98320000
H       -0.61350000       1.89860000       0.79810000
H        0.54630000      -0.30510000      -0.99020000
H        1.71020000      -0.02290000       1.30870000
H        0.11880000      -0.29590000       2.04150000
H        0.09860000      -2.60770000       0.78290000
H       -3.86630000      -0.75120000      -0.38640000
H       -3.76880000      -1.37500000      -2.06080000
H       -3.15100000      -2.33290000      -0.68510000
