15
Properties=species:S:1:pos:R:3 gdb_44816=T pbc="F F F"
O       -0.03080000       0.04570000       0.23020000
C        0.03830000       1.22790000       0.14590000
O       -1.00750000       2.14080000       0.11470000
C       -0.06890000       3.22270000      -0.13840000
C        0.82430000       3.37580000       1.03220000
C        1.11170000       2.28180000      -0.01440000
C        2.38320000       2.14240000      -0.75960000
C        2.99510000       0.82270000      -0.98280000
O        2.30640000       1.50380000      -2.03500000
H       -0.33290000       3.94160000      -0.90000000
H        1.53020000       4.20150000       0.99870000
H        0.46730000       3.11020000       2.02200000
H        3.03380000       3.01720000      -0.73200000
H        4.07500000       0.74960000      -1.10000000
H        2.49180000      -0.06130000      -0.59830000
