18
Properties=species:S:1:pos:R:3 gdb_47106=T pbc="F F F"
O       -0.07770000      -0.05270000      -0.00310000
C       -0.05660000       1.15850000       0.03460000
N       -1.14880000       1.98310000       0.06430000
C       -0.86540000       3.40560000       0.02850000
C        0.63810000       3.46740000       0.37400000
C        0.94820000       3.61480000       1.87590000
O        2.16430000       2.92280000       2.07620000
C        2.12010000       1.73970000       1.28380000
C        1.18720000       2.05320000       0.08580000
H       -2.07630000       1.59800000      -0.01990000
H       -1.06730000       3.83580000      -0.96150000
H       -1.47710000       3.95160000       0.75690000
H        1.14890000       4.24550000      -0.19510000
H        1.09040000       4.64980000       2.19750000
H        0.13230000       3.17240000       2.47440000
H        3.14340000       1.50650000       0.98020000
H        1.72900000       0.88930000       1.85930000
H        1.71250000       1.96940000      -0.86840000
