15
Properties=species:S:1:pos:R:3 gdb_133277=T pbc="F F F"
C       -0.00590000       1.42410000       0.00710000
N        0.04860000      -0.02300000       0.00220000
C       -1.06570000      -0.66100000       0.00900000
N       -2.33740000      -0.07740000       0.02080000
N       -3.53530000      -0.71290000       0.02810000
C       -3.48720000      -1.99290000       0.02380000
F       -4.64680000      -2.64150000       0.03040000
C       -2.28400000      -2.77440000       0.01190000
C       -1.10840000      -2.11350000       0.00490000
H        1.01000000       1.82650000       0.00010000
H       -0.52630000       1.83610000      -0.87560000
H       -0.51180000       1.83060000       0.90060000
H       -2.42320000       0.92500000       0.02440000
H       -2.35330000      -3.85530000       0.00900000
H       -0.15010000      -2.61720000      -0.00420000
