20
Properties=species:S:1:pos:R:3 gdb_65113=T pbc="F F F"
C        0.05170000       1.49960000      -0.23800000
C       -0.00390000      -0.00190000      -0.03310000
C        1.28640000      -0.80320000      -0.12550000
C        0.64100000      -0.59750000       1.20940000
C       -1.22300000      -0.69620000      -0.51590000
N       -1.46620000      -1.94270000      -0.43180000
C       -2.78200000      -2.16390000      -1.04090000
C       -3.24400000      -0.75400000      -1.49580000
O       -2.15510000       0.10860000      -1.10350000
H        0.99220000       1.89560000       0.15600000
H       -0.01010000       1.76150000      -1.29840000
H       -0.77170000       2.00450000       0.27590000
H        1.21390000      -1.78790000      -0.57080000
H        2.18900000      -0.24820000      -0.35850000
H        1.09490000       0.10060000       1.90490000
H        0.13630000      -1.44440000       1.65780000
H       -2.69990000      -2.86540000      -1.87860000
H       -3.46730000      -2.61170000      -0.31260000
H       -3.38030000      -0.66400000      -2.57740000
H       -4.15330000      -0.40720000      -0.99630000
