20
Properties=species:S:1:pos:R:3 gdb_56164=T pbc="F F F"
C        1.04580000      -0.10100000       1.21670000
C        0.73050000      -1.47020000       0.63430000
O        1.25840000      -2.48700000       1.04840000
N       -0.19480000      -1.47270000      -0.37230000
C       -0.62000000      -2.68390000      -1.04860000
C       -0.25050000      -2.66560000      -2.52200000
C        1.22360000      -2.67680000      -2.85260000
C       -1.23710000      -3.14230000      -3.50060000
O       -1.04520000      -1.74030000      -3.29130000
H        2.12860000       0.04420000       1.20470000
H        0.56590000       0.72560000       0.68640000
H        0.72640000      -0.08260000       2.26250000
H       -0.57610000      -0.60050000      -0.70060000
H       -0.13040000      -3.51360000      -0.53250000
H       -1.70520000      -2.80290000      -0.95160000
H        1.69100000      -3.60300000      -2.50290000
H        1.37450000      -2.58860000      -3.93090000
H        1.73280000      -1.84150000      -2.36280000
H       -0.89550000      -3.52150000      -4.46280000
H       -2.19380000      -3.53970000      -3.16280000
