16
Properties=species:S:1:pos:R:3 gdb_56100=T pbc="F F F"
C       -0.03150000       1.45280000      -0.01300000
C        0.07200000      -0.06210000       0.01400000
O        1.12380000      -0.64860000       0.02200000
C       -1.27260000      -0.78140000       0.02830000
O       -1.05370000      -2.18150000      -0.00930000
C       -2.15940000      -2.94900000       0.01900000
N       -3.32980000      -2.45040000       0.07550000
C       -1.83530000      -4.34810000      -0.02220000
C       -1.61770000      -5.52960000      -0.05510000
H        0.96510000       1.88610000       0.07420000
H       -0.49020000       1.78330000      -0.95220000
H       -0.66860000       1.81840000       0.79980000
H       -1.83740000      -0.50190000       0.92740000
H       -1.88530000      -0.46120000      -0.82440000
H       -4.03070000      -3.18770000       0.08940000
H       -1.41720000      -6.57280000      -0.08420000
