23
Properties=species:S:1:pos:R:3 gdb_59649=T pbc="F F F"
C       -0.28860000       1.52140000       0.16720000
C        0.14920000       0.07420000      -0.07040000
O        1.11350000      -0.01260000      -1.10930000
C        0.70180000      -0.57970000       1.20550000
C        1.02560000      -2.07020000       1.08290000
C        2.15890000      -2.24360000       2.10350000
C        2.89730000      -0.88770000       2.04510000
C        4.15490000      -0.89660000       1.18190000
O        1.95630000       0.05170000       1.49420000
H        0.54520000       2.11100000       0.56110000
H       -0.62170000       1.97030000      -0.77200000
H       -1.11120000       1.57110000       0.88910000
H       -0.71100000      -0.51600000      -0.41010000
H        1.93160000       0.31920000      -0.71570000
H        0.00210000      -0.40380000       2.03870000
H        0.16070000      -2.70540000       1.28900000
H        1.37010000      -2.27510000       0.06500000
H        1.74850000      -2.40940000       3.10480000
H        2.82130000      -3.08220000       1.87460000
H        3.15790000      -0.54380000       3.05470000
H        3.94060000      -1.29680000       0.18500000
H        4.54510000       0.11920000       1.06830000
H        4.93440000      -1.51310000       1.64140000
