17
Properties=species:S:1:pos:R:3 gdb_32200=T pbc="F F F"
C        0.03310000       1.51420000       0.01420000
C        0.02430000       0.00980000       0.03320000
N        0.03180000      -0.62240000      -1.14340000
C        0.02270000      -1.95780000      -1.12240000
C        0.01080000      -2.67310000       0.06650000
N        0.00390000      -2.05520000       1.25080000
C        0.00590000      -0.72100000       1.24230000
C        0.02510000      -0.03630000       2.59220000
O        1.24870000       0.65320000       2.83780000
H        0.78840000       1.90620000       0.69940000
H        0.22550000       1.86410000      -1.00080000
H       -0.93610000       1.91490000       0.33740000
H        0.02680000      -2.46580000      -2.08360000
H        0.00830000      -3.75980000       0.07300000
H       -0.75490000       0.72970000       2.65110000
H       -0.17660000      -0.79410000       3.35900000
H        1.95360000      -0.00330000       2.83170000
