16
Properties=species:S:1:pos:R:3 gdb_36469=T pbc="F F F"
C        0.04000000      -1.19770000      -0.17740000
C       -0.02260000      -0.00290000      -0.06480000
C       -0.05310000       1.44910000       0.06500000
C        1.36140000       2.03530000       0.08710000
C        2.16880000       1.99490000      -1.22750000
O        2.31810000       3.43790000      -1.23240000
C        1.53060000       3.58140000      -0.04070000
C        0.30850000       4.36450000      -0.25740000
N       -0.66360000       4.96980000      -0.41420000
H        0.07490000      -2.25450000      -0.27620000
H       -0.62390000       1.88570000      -0.76380000
H       -0.58480000       1.73280000       0.98190000
H        1.91260000       1.64240000       0.94270000
H        3.13840000       1.48990000      -1.18750000
H        1.61010000       1.64180000      -2.10170000
H        2.10140000       4.04960000       0.77010000
