20
Properties=species:S:1:pos:R:3 gdb_79186=T pbc="F F F"
C       -0.21840000       1.57230000      -0.01370000
C        0.04820000       0.06910000      -0.00820000
C        0.86770000      -0.47580000      -1.17700000
C        2.36680000      -0.06360000      -1.15870000
C        2.60340000      -1.38260000      -0.44150000
C        1.60950000      -1.63450000       0.63290000
C        0.83900000      -0.46680000       1.22480000
O        1.76250000       0.46000000       1.79030000
N        1.22480000      -1.90980000      -0.77560000
H        0.71210000       2.14570000       0.00990000
H       -0.77360000       1.86650000      -0.90990000
H       -0.82110000       1.87150000       0.85210000
H       -0.91180000      -0.46410000      -0.02380000
H        0.36360000      -0.42810000      -2.14280000
H        2.79560000      -0.07450000      -2.16320000
H        2.65470000       0.85510000      -0.64420000
H        3.48620000      -2.00740000      -0.54010000
H        1.75640000      -2.52540000       1.23450000
H        0.14830000      -0.81750000       2.00400000
H        1.25830000       1.12780000       2.26600000
