18
Properties=species:S:1:pos:R:3 gdb_22950=T pbc="F F F"
O       -0.01510000       1.23270000      -0.00010000
N        0.02020000      -0.16640000       0.12930000
C       -1.14080000      -0.66560000       0.05060000
C       -2.53540000      -0.15700000      -0.24750000
C       -2.93200000      -1.63580000      -0.55320000
C       -1.56660000      -2.12440000       0.04430000
C       -0.73990000      -3.13820000      -0.75560000
C        0.59270000      -3.44670000      -0.09910000
O        0.94450000      -4.55290000       0.22520000
H        0.91680000       1.46830000       0.06550000
H       -3.03320000       0.26030000       0.63350000
H       -2.61310000       0.56880000      -1.06000000
H       -3.83060000      -2.01430000      -0.06430000
H       -3.00100000      -1.83390000      -1.62540000
H       -1.70840000      -2.49110000       1.06860000
H       -1.29040000      -4.07620000      -0.87670000
H       -0.53650000      -2.72030000      -1.75130000
H        1.23660000      -2.55840000       0.07310000
