25
Properties=species:S:1:pos:R:3 gdb_100947=T pbc="F F F"
C        0.13000000       1.11400000       0.74800000
C        0.02970000      -0.31210000       0.20360000
C        0.60060000      -0.46360000      -1.21010000
O        1.99020000      -0.14150000      -1.19650000
C        2.36730000       0.93970000      -2.01790000
C        0.38990000      -1.88310000      -1.77110000
C        1.01910000      -2.05960000      -3.15500000
O        0.92380000      -2.80120000      -0.82900000
C        0.45120000      -4.12030000      -0.95090000
H        1.17310000       1.44040000       0.78310000
H       -0.42770000       1.82440000       0.12620000
H       -0.27460000       1.17580000       1.76300000
H        0.56510000      -1.00720000       0.85580000
H       -1.01880000      -0.63680000       0.19000000
H        0.07140000       0.22530000      -1.88730000
H        1.85600000       1.87230000      -1.73620000
H        3.44400000       1.08100000      -1.88730000
H        2.16850000       0.74610000      -3.08270000
H       -0.70160000      -2.03790000      -1.84580000
H        2.09820000      -1.90260000      -3.09030000
H        0.83430000      -3.06110000      -3.55280000
H        0.59710000      -1.34150000      -3.86600000
H        0.85510000      -4.68550000      -0.10680000
H       -0.64930000      -4.16440000      -0.91110000
H        0.77930000      -4.60750000      -1.88080000
