19
Properties=species:S:1:pos:R:3 gdb_86006=T pbc="F F F"
C       -0.44550000       1.33710000      -0.18450000
C       -0.03500000      -0.11100000      -0.01480000
O        1.15530000      -0.47190000      -0.78700000
C        1.95690000      -0.63720000       0.41700000
C        2.72890000      -1.94270000       0.43820000
C        2.89820000       0.55910000       0.41340000
O        2.90380000       1.46650000       1.21400000
C        0.68830000      -0.50440000       1.30800000
O        0.67820000       0.34960000       2.40740000
H        0.35360000       2.02330000       0.10690000
H       -0.70790000       1.53450000      -1.22810000
H       -1.31930000       1.54950000       0.43940000
H       -0.85880000      -0.77870000      -0.29150000
H        3.47930000      -1.97010000      -0.35910000
H        3.23850000      -2.07110000       1.39930000
H        2.04140000      -2.77970000       0.28900000
H        3.58050000       0.56980000      -0.46430000
H        0.35650000      -1.48770000       1.65610000
H        1.34200000       1.03820000       2.25150000
