17
Properties=species:S:1:pos:R:3 gdb_34299=T pbc="F F F"
C        0.01280000      -1.13530000      -0.03080000
C       -0.01250000       0.06550000      -0.02610000
C       -0.00920000       1.50850000       0.03680000
C       -0.80230000       2.15480000       1.21010000
C       -1.05170000       3.58230000       0.64250000
C       -0.35010000       3.45500000      -0.72120000
O        1.06210000       3.49070000      -0.51560000
C        1.38850000       2.18350000      -0.03170000
O       -0.62640000       2.12660000      -1.11730000
H        0.02830000      -2.19720000      -0.04660000
H       -1.73260000       1.60860000       1.37080000
H       -0.23020000       2.14500000       2.13990000
H       -2.11720000       3.78970000       0.51780000
H       -0.60600000       4.37650000       1.24370000
H       -0.62450000       4.16110000      -1.50390000
H        1.87430000       2.24030000       0.94770000
H        2.04680000       1.67150000      -0.74090000
