15
Properties=species:S:1:pos:R:3 gdb_28296=T pbc="F F F"
C        0.00690000       1.46930000       0.07070000
C        0.02500000      -0.02030000      -0.03050000
C       -0.10520000      -0.78550000      -1.17000000
N       -0.02060000      -2.09820000      -0.72400000
C       -0.03640000      -3.44690000      -1.06760000
C        0.12640000      -4.12050000       0.09020000
O        0.24530000      -3.25290000       1.15850000
C        0.15120000      -2.01300000       0.62820000
N        0.18770000      -0.80570000       1.10880000
H        0.94230000       1.84470000       0.49950000
H       -0.12880000       1.92780000      -0.91250000
H       -0.80460000       1.80830000       0.72360000
H       -0.24330000      -0.52820000      -2.20540000
H       -0.15790000      -3.80920000      -2.07320000
H        0.17810000      -5.16930000       0.32130000
