15
Properties=species:S:1:pos:R:3 gdb_56391=T pbc="F F F"
C       -0.10100000       1.62380000       0.37710000
C       -0.05370000       0.11210000       0.03820000
C        0.81100000      -0.60980000       0.98800000
N        1.49990000      -1.16010000       1.73380000
C       -1.39090000      -0.48080000      -0.00270000
C       -2.50260000      -0.94060000      -0.04640000
C       -3.86820000      -1.44700000      -0.14980000
N       -4.10760000      -2.53780000       0.62990000
O       -4.70000000      -0.93030000      -0.86900000
H        0.90870000       2.04000000       0.36610000
H       -0.71330000       2.14010000      -0.36470000
H       -0.53810000       1.77880000       1.36520000
H        0.40170000      -0.00250000      -0.95520000
H       -3.39470000      -2.93980000       1.21330000
H       -5.02810000      -2.94540000       0.61280000
