19
Properties=species:S:1:pos:R:3 gdb_53676=T pbc="F F F"
C        0.07180000       1.47330000      -0.10910000
C        0.00020000       0.02720000       0.03600000
C       -0.06650000      -1.16840000       0.15200000
C       -0.12210000      -2.61400000       0.30600000
O       -1.33580000      -3.11730000      -0.23800000
C       -1.43370000      -4.51130000      -0.15150000
C       -1.90750000      -5.13120000       1.18850000
O       -3.03720000      -5.74560000       0.53540000
C       -2.75840000      -5.05770000      -0.70240000
H        0.93830000       1.77240000      -0.70880000
H       -0.82470000       1.85980000      -0.60600000
H        0.15100000       1.96930000       0.86440000
H        0.73830000      -3.08350000      -0.20120000
H       -0.04190000      -2.88000000       1.37330000
H       -0.53600000      -4.99370000      -0.56420000
H       -1.25560000      -5.87290000       1.66390000
H       -2.21220000      -4.37730000       1.92700000
H       -3.48270000      -4.26110000      -0.91280000
H       -2.70330000      -5.74390000      -1.55430000
