16
Properties=species:S:1:pos:R:3 gdb_36003=T pbc="F F F"
C        0.24290000      -1.28970000       0.00310000
C        0.09660000      -0.09720000      -0.00730000
C       -0.06090000       1.35420000      -0.05730000
C        1.33900000       2.03210000       0.00550000
C        1.28630000       3.48330000       0.16960000
N        1.27430000       4.62810000       0.32230000
C       -0.83090000       1.75430000      -1.31030000
C       -2.29150000       1.86810000      -1.30270000
O       -1.45580000       3.03000000      -1.28800000
H        0.35940000      -2.34540000       0.02630000
H       -0.64140000       1.69110000       0.80990000
H        1.90210000       1.61010000       0.84370000
H        1.90090000       1.79280000      -0.90400000
H       -0.33140000       1.50290000      -2.24740000
H       -2.84980000       1.70460000      -2.22230000
H       -2.84010000       1.67560000      -0.38190000
