18
Properties=species:S:1:pos:R:3 gdb_76382=T pbc="F F F"
C       -0.11640000       1.63060000       0.01560000
C       -0.03090000       0.12330000      -0.05790000
C        0.53390000      -0.60820000      -1.24810000
N        1.18920000       0.14220000      -2.29100000
H        2.59810000       0.44700000      -0.85420000
H        1.51630000      -0.47100000      -3.02850000
H        0.57520000       0.83230000      -2.70950000
C        1.30660000      -0.58160000       0.07710000
O        2.47970000       0.17620000       0.07770000
C        1.39320000      -1.84900000       0.86600000
O        2.61120000      -2.08890000       1.38160000
O        0.46360000      -2.60110000       1.01330000
H        0.79710000       2.10740000      -0.34540000
H       -0.96040000       2.00590000      -0.57360000
H       -0.26790000       1.95080000       1.05070000
H       -0.84080000      -0.41750000       0.42240000
H        0.06220000      -1.55270000      -1.50680000
H        3.17550000      -1.34260000       1.11430000
