22
Properties=species:S:1:pos:R:3 gdb_116078=T pbc="F F F"
C        0.12860000       1.56110000       0.05370000
C        0.00250000       0.03480000      -0.00780000
C       -1.44230000      -0.49020000      -0.02000000
C       -2.21970000      -0.11240000      -1.29720000
N       -3.58440000      -0.63710000      -1.35020000
C       -3.63800000      -2.09630000      -1.20800000
C       -2.87310000      -2.60600000       0.01340000
O       -3.34700000      -3.39090000       0.80250000
C       -1.47380000      -2.02560000       0.15930000
H        1.17830000       1.86190000       0.12390000
H       -0.29060000       2.04560000      -0.83340000
H       -0.39060000       1.96500000       0.93010000
H        0.52570000      -0.34460000      -0.89670000
H        0.52170000      -0.40120000       0.85510000
H       -1.97540000      -0.04220000       0.83300000
H       -2.27290000       0.97480000      -1.40790000
H       -1.67840000      -0.49460000      -2.17570000
H       -4.13740000      -0.21240000      -0.61130000
H       -4.67590000      -2.43110000      -1.14400000
H       -3.19510000      -2.54530000      -2.10970000
H       -0.84960000      -2.48040000      -0.62570000
H       -1.06410000      -2.33340000       1.12540000
