19
Properties=species:S:1:pos:R:3 gdb_9273=T pbc="F F F"
C        0.05730000       1.39430000       0.07370000
O       -0.11330000       0.00860000      -0.12250000
C        0.65900000      -0.55230000      -1.17690000
C        2.13580000      -0.69570000      -0.80090000
C        0.02770000      -1.90790000      -1.49920000
C       -1.45340000      -1.77230000      -1.90090000
C       -2.07680000      -3.06090000      -2.18850000
N       -2.55510000      -4.08850000      -2.41450000
H        1.06370000       1.65010000       0.43350000
H       -0.13320000       1.96140000      -0.85100000
H       -0.66810000       1.70180000       0.83070000
H        0.57620000       0.10040000      -2.06470000
H        2.69670000      -1.15550000      -1.62060000
H        2.59330000       0.27500000      -0.59170000
H        2.24110000      -1.32450000       0.08860000
H        0.59070000      -2.38660000      -2.30630000
H        0.10630000      -2.55550000      -0.61950000
H       -2.00090000      -1.27870000      -1.09310000
H       -1.55060000      -1.13480000      -2.78800000
