15
Properties=species:S:1:pos:R:3 gdb_25461=T pbc="F F F"
N       -0.08300000       1.34920000       0.01120000
C        0.02790000       0.07160000       0.00340000
C        1.25480000      -0.71160000      -0.00780000
C        1.25290000      -2.06310000      -0.01560000
C        0.01600000      -2.79240000      -0.01320000
C       -1.14060000      -2.10070000      -0.00280000
N       -1.16530000      -0.71680000       0.00540000
C       -2.42750000      -0.07810000       0.01630000
O       -3.46610000      -0.68790000       0.01850000
H        0.83840000       1.78020000       0.00860000
H        2.18050000      -0.14690000      -0.00950000
H        2.19160000      -2.60780000      -0.02390000
H        0.00190000      -3.87370000      -0.01940000
H       -2.12660000      -2.54510000       0.00000000
H       -2.32550000       1.01210000       0.02220000
