22
Properties=species:S:1:pos:R:3 gdb_108330=T pbc="F F F"
C        0.03280000       1.56390000       0.01020000
C       -0.00710000       0.03030000      -0.00090000
C       -1.41480000      -0.53200000       0.01070000
C       -2.27820000      -0.40070000       1.30740000
C       -2.52680000      -1.94190000       1.30230000
C       -1.68370000      -2.07580000       0.00110000
C       -2.41160000      -1.90990000      -1.35080000
N       -3.54360000      -0.97320000      -1.14290000
C       -2.17660000      -0.43810000      -1.34050000
H        1.06300000       1.93300000       0.00760000
H       -0.47240000       1.98400000      -0.86620000
H       -0.46380000       1.96550000       0.89970000
H        0.52390000      -0.34550000      -0.88660000
H        0.53890000      -0.35640000       0.86960000
H       -1.69930000      -0.05080000       2.16730000
H       -3.17590000       0.21060000       1.20710000
H       -2.08250000      -2.46140000       2.15490000
H       -3.57140000      -2.24050000       1.20560000
H       -0.85170000      -2.78190000      -0.01340000
H       -2.43500000      -2.61140000      -2.17670000
H       -4.03050000      -0.89010000      -2.03450000
H       -1.97240000       0.24790000      -2.15560000
