14
Properties=species:S:1:pos:R:3 gdb_24952=T pbc="F F F"
O       -0.02470000      -0.03660000      -0.05260000
C       -0.01740000       1.17500000      -0.06240000
N       -1.14950000       2.02370000      -0.08000000
C       -0.70940000       3.32780000       0.10750000
C        0.66160000       3.35690000       0.09550000
N        1.08290000       2.02950000      -0.04420000
C        1.07510000       4.71170000       0.01340000
C       -0.08890000       5.45650000      -0.01250000
N       -1.18610000       4.60290000      -0.00420000
H       -2.04390000       1.63840000       0.17260000
H        2.00990000       1.66120000       0.07410000
H        2.07710000       5.10910000      -0.00460000
H       -0.23330000       6.52330000       0.02720000
H       -2.14240000       4.89820000       0.07740000
