13
Properties=species:S:1:pos:R:3 gdb_12462=T pbc="F F F"
O       -0.01750000       0.11030000      -0.70570000
C       -0.06750000       1.03480000       0.04020000
O       -1.13150000       1.83710000       0.12260000
C       -1.29040000       2.75440000       1.21650000
C       -0.35830000       3.94730000       1.09450000
N        1.04460000       3.66330000       1.31410000
C        1.53780000       2.51480000       1.22880000
O        0.99000000       1.28370000       0.89670000
H       -2.33280000       3.07300000       1.15240000
H       -1.14200000       2.22950000       2.16620000
H       -0.47940000       4.40470000       0.10450000
H       -0.66080000       4.70790000       1.82450000
H        2.58730000       2.34530000       1.45700000
