17
Properties=species:S:1:pos:R:3 gdb_90396=T pbc="F F F"
N       -0.11970000       1.46790000       0.02820000
C       -0.06550000       0.05400000      -0.06540000
C       -1.20750000      -0.95600000      -0.01980000
C       -0.52870000      -1.81420000      -1.09180000
C        0.64350000      -0.77550000      -1.15580000
O        0.66200000       0.00250000      -2.33500000
C       -0.28220000      -0.78570000       1.17610000
C        0.63520000      -1.80830000       1.60420000
N        1.37990000      -2.63440000       1.92470000
H        0.73980000       1.83710000       0.42650000
H       -0.20400000       1.85770000      -0.90680000
H       -2.27020000      -0.78860000       0.10450000
H       -0.27420000      -2.83900000      -0.80830000
H       -1.08020000      -1.81270000      -2.03410000
H        1.64460000      -1.15480000      -0.91020000
H        1.01820000      -0.53590000      -3.04850000
H       -0.72160000      -0.21180000       1.98590000
