10
Properties=species:S:1:pos:R:3 gdb_21514=T pbc="F F F"
N       -0.06280000       1.33580000       0.00810000
C        0.13190000       0.00450000       0.00070000
O        1.15820000      -0.60820000      -0.01070000
N       -1.15650000      -0.70700000       0.00860000
N       -2.34850000      -0.11140000       0.02050000
N       -3.20970000      -1.06970000       0.02410000
N       -2.54480000      -2.25540000       0.01410000
N       -1.27400000      -2.02980000       0.00430000
H        0.75120000       1.92650000       0.00290000
H       -0.98740000       1.73440000       0.01680000
