17
Properties=species:S:1:pos:R:3 gdb_85757=T pbc="F F F"
O        0.08690000       1.38680000      -0.11150000
C        0.03890000      -0.02540000      -0.07990000
C        0.74200000      -0.65200000       1.15290000
C        0.00940000      -1.99580000       1.42710000
C        0.06480000      -2.44380000       2.81180000
C        0.10770000      -2.80960000       3.95580000
C       -1.40370000      -1.73010000       0.90010000
O       -1.94080000      -0.46580000       1.29530000
C       -1.36870000      -0.59430000      -0.02160000
H       -0.41730000       1.70070000       0.64890000
H        0.51800000      -0.35330000      -1.01010000
H        1.81390000      -0.78680000       1.00140000
H        0.60630000       0.01190000       2.00940000
H        0.43880000      -2.78020000       0.78750000
H        0.14390000      -3.13080000       4.96720000
H       -2.11980000      -2.54380000       0.82720000
H       -2.06060000      -0.46640000      -0.84950000
