9
Properties=species:S:1:pos:R:3 gdb_23855=T pbc="F F F"
F        0.03360000       0.07250000       0.00380000
C       -0.01980000       1.37950000       0.01070000
N       -1.19190000       1.89320000       0.02820000
O       -1.21720000       3.28750000       0.03550000
C       -0.05760000       3.96260000       0.02420000
N        1.13220000       3.50150000       0.00690000
C        1.28130000       2.11040000      -0.00200000
O        2.33900000       1.53700000      -0.01820000
H       -0.26360000       5.03070000       0.03220000
