16
Properties=species:S:1:pos:R:3 gdb_16869=T pbc="F F F"
O       -0.05670000       0.06200000      -0.63540000
C       -0.07900000       1.12540000      -0.08230000
C       -1.31930000       1.99070000       0.06530000
C       -1.36420000       2.69450000       1.43110000
C       -0.10010000       3.52700000       1.58570000
C        1.02750000       3.08160000       2.49380000
C        1.14040000       2.90610000       1.00890000
O        1.06730000       1.59210000       0.49450000
H       -1.30820000       2.74250000      -0.73400000
H       -2.17870000       1.34130000      -0.11010000
H       -2.25580000       3.32290000       1.50630000
H       -1.44150000       1.94620000       2.22700000
H       -0.21510000       4.59500000       1.43060000
H        1.64570000       3.83410000       2.97020000
H        0.87050000       2.18090000       3.07800000
H        1.84990000       3.50800000       0.45060000
