21
Properties=species:S:1:pos:R:3 gdb_118906=T pbc="F F F"
C       -0.13900000       1.32880000       0.18670000
O       -0.04450000      -0.07340000       0.09250000
C       -1.30130000      -0.72630000       0.07710000
C       -1.03870000      -2.21820000      -0.13990000
O       -0.31750000      -2.37870000      -1.35260000
C       -0.30580000      -2.83510000       1.09460000
C       -1.39590000      -3.57090000       1.82970000
C       -2.51470000      -3.65750000       1.11180000
C       -2.37860000      -2.99270000      -0.23410000
H        0.87840000       1.72730000       0.18140000
H       -0.69530000       1.75690000      -0.66140000
H       -0.63810000       1.63930000       1.11730000
H       -1.84290000      -0.55920000       1.02180000
H       -1.91760000      -0.33890000      -0.74980000
H        0.37200000      -1.70280000      -1.34090000
H        0.47300000      -3.52230000       0.74010000
H        0.19670000      -2.07190000       1.69820000
H       -1.25180000      -3.99780000       2.81650000
H       -3.42150000      -4.16590000       1.42070000
H       -3.22220000      -2.33510000      -0.47950000
H       -2.30940000      -3.72480000      -1.04850000
