17
Properties=species:S:1:pos:R:3 gdb_47673=T pbc="F F F"
N       -0.01660000       1.36670000       0.20620000
C        0.00840000       0.12280000      -0.01910000
C       -1.28220000      -0.66450000      -0.08280000
C       -1.64510000      -1.30630000      -1.42760000
O       -2.65830000      -1.01870000      -2.02950000
N       -0.77030000      -2.25320000      -1.88310000
C        0.46780000      -2.64760000      -1.23770000
C        1.47330000      -1.50670000      -1.09590000
O        1.19720000      -0.56700000      -0.05770000
H        0.93950000       1.72710000       0.25010000
H       -1.23930000      -1.45520000       0.67780000
H       -2.09320000       0.01700000       0.16250000
H       -1.03570000      -2.68930000      -2.75290000
H        0.28410000      -3.09790000      -0.25240000
H        0.92790000      -3.42130000      -1.85850000
H        2.45190000      -1.91820000      -0.83310000
H        1.56240000      -0.98170000      -2.05660000
