18
Properties=species:S:1:pos:R:3 gdb_17853=T pbc="F F F"
C        0.06610000       1.31640000      -0.27410000
C        1.51310000       1.52100000       0.22300000
C        1.32360000       0.13120000       0.83210000
O       -0.01420000       0.00900000       0.33950000
C        2.17330000      -1.09370000       0.86380000
C        3.60550000      -0.73970000       1.27440000
C        3.06130000      -0.08850000       2.59080000
C        1.63280000      -0.44710000       2.17120000
H       -0.68090000       2.00300000       0.14020000
H       -0.06010000       1.26010000      -1.36120000
H        2.27190000       1.59200000      -0.55870000
H        1.65260000       2.33300000       0.93930000
H        1.84790000      -1.99480000       0.35740000
H        4.22150000      -1.61870000       1.47500000
H        4.15470000      -0.08410000       0.58930000
H        3.39180000      -0.62570000       3.48220000
H        3.26710000       0.97790000       2.73620000
H        0.82990000      -0.77680000       2.82010000
