16
Properties=species:S:1:pos:R:3 gdb_9537=T pbc="F F F"
O        0.03200000       1.37390000       0.01900000
C        0.04450000      -0.04650000      -0.04520000
C       -1.39940000      -0.54090000      -0.07300000
O       -2.09950000       0.05110000      -1.14450000
C       -1.69960000      -2.06140000       0.04810000
C       -2.51750000      -1.83090000       1.36100000
C       -2.09410000      -0.35830000       1.30700000
O       -2.15520000       0.57630000       2.05970000
H       -0.40630000       1.61220000       0.84810000
H        0.55240000      -0.31670000      -0.97720000
H        0.59950000      -0.49170000       0.79370000
H       -1.77930000       0.96420000      -1.18390000
H       -2.27560000      -2.44000000      -0.79590000
H       -0.80730000      -2.67660000       0.18370000
H       -3.59760000      -1.96000000       1.24140000
H       -2.20470000      -2.36980000       2.25920000
