13
Properties=species:S:1:pos:R:3 gdb_20461=T pbc="F F F"
C       -0.03290000       1.52650000       0.17930000
N        1.30950000       1.94270000      -0.31870000
C        2.19480000       0.75180000      -0.52730000
C        1.23270000      -0.38410000      -0.37320000
C        0.00180000       0.03880000       0.01630000
O       -0.82020000      -0.94890000       0.21270000
N        0.07170000      -2.19540000      -0.12150000
N        1.18630000      -1.74510000      -0.42080000
H       -0.16960000       1.79980000       1.23460000
H       -0.83660000       2.00970000      -0.38570000
H        1.19130000       2.41390000      -1.20550000
H        2.67800000       0.80230000      -1.50840000
H        2.99210000       0.72830000       0.22690000
