18
Properties=species:S:1:pos:R:3 gdb_113688=T pbc="F F F"
C        0.33970000       1.23210000       0.13210000
O       -0.01530000      -0.13020000      -0.13430000
C        0.51840000      -0.64150000      -1.26030000
O        1.26790000      -0.05130000      -2.00120000
N        0.02750000      -1.91560000      -1.50420000
C        0.04070000      -3.01670000      -0.55960000
C        0.90690000      -3.03970000      -1.78410000
C        0.57920000      -3.82520000      -3.02890000
O        1.08300000      -3.17950000      -4.18150000
H        1.42200000       1.33620000       0.24140000
H        0.00390000       1.88310000      -0.67890000
H       -0.16510000       1.49110000       1.06280000
H        0.52600000      -2.85670000       0.39910000
H       -0.86980000      -3.60860000      -0.52170000
H        1.96920000      -2.85480000      -1.63140000
H        1.05310000      -4.81210000      -2.99200000
H       -0.51110000      -3.97430000      -3.08210000
H        0.82230000      -2.25210000      -4.12630000
