19
Properties=species:S:1:pos:R:3 gdb_73497=T pbc="F F F"
C       -0.00880000       1.48150000       0.06520000
C        0.04370000      -0.02440000      -0.02260000
C        1.04450000      -0.67800000      -0.97290000
O        0.39420000      -1.80280000      -1.56660000
C       -0.72040000      -2.17010000      -0.75870000
C       -0.26990000      -3.03240000       0.42750000
O        0.28690000      -2.10400000       1.36810000
C       -0.35730000      -0.86710000       1.17500000
C       -1.20200000      -0.88740000      -0.06430000
H        0.95270000       1.89180000       0.39430000
H       -0.24950000       1.92930000      -0.90580000
H       -0.76830000       1.81090000       0.78140000
H        1.33490000       0.01010000      -1.77530000
H        1.95040000      -0.99910000      -0.44130000
H       -1.45870000      -2.66070000      -1.39660000
H       -1.12430000      -3.56380000       0.87470000
H        0.50440000      -3.75210000       0.15170000
H       -0.66130000      -0.38090000       2.09690000
H       -2.21410000      -0.51320000      -0.14980000
