17
Properties=species:S:1:pos:R:3 gdb_16559=T pbc="F F F"
C       -0.03440000       1.54370000      -0.01460000
C        1.46120000       1.99900000      -0.02130000
C        2.25030000       0.67870000       0.11370000
C        1.36400000      -0.31760000      -0.65320000
C        0.02940000       0.00570000       0.02220000
O        0.08320000      -0.45560000       1.39860000
C        1.27500000      -0.24610000       2.00980000
N        2.32370000       0.27750000       1.53050000
H       -0.59600000       1.92210000       0.84250000
H       -0.55610000       1.87430000      -0.91790000
H        1.71490000       2.49930000      -0.96160000
H        1.69780000       2.68460000       0.79480000
H        3.26950000       0.75540000      -0.27040000
H        1.31810000      -0.08360000      -1.72190000
H        1.66860000      -1.35940000      -0.52870000
H       -0.84590000      -0.48720000      -0.40190000
H        1.23970000      -0.60360000       3.03730000
