11
Properties=species:S:1:pos:R:3 gdb_130619=T pbc="F F F"
O       -0.03740000       0.33800000       1.10250000
C       -0.01210000       1.22260000       0.28280000
C       -1.29040000       1.72750000      -0.27880000
N       -1.64480000       2.61550000      -1.12860000
O       -0.81390000       3.45430000      -1.84630000
N        0.56240000       3.57530000      -1.85850000
C        1.39860000       2.89650000      -1.16820000
C        1.33210000       1.80660000      -0.16220000
O        2.35590000       1.37720000       0.30960000
H       -2.14890000       1.20600000       0.14270000
H        2.42640000       3.19520000      -1.37050000
