19
Properties=species:S:1:pos:R:3 gdb_78369=T pbc="F F F"
C        0.00770000       1.58840000      -0.02090000
C        0.09670000       0.08140000      -0.06320000
C        0.62550000      -0.78430000      -1.14270000
C        1.94140000      -0.34320000      -1.84380000
C        2.41370000       0.91930000      -2.58480000
C        3.59040000       1.35930000      -1.62620000
N        3.22600000       0.89810000      -0.24770000
C        2.38620000      -0.02130000      -0.46280000
N        1.33270000      -0.71060000       0.24940000
H        0.86960000       2.08780000      -0.45880000
H       -0.89300000       1.91320000      -0.55270000
H       -0.07710000       1.92190000       1.01840000
H       -0.73820000      -0.38860000       0.45560000
H        0.10610000      -1.69470000      -1.42410000
H        2.42420000      -1.24750000      -2.23040000
H        2.75000000       0.73740000      -3.60830000
H        1.64460000       1.69550000      -2.61650000
H        4.54460000       0.91110000      -1.93230000
H        3.73330000       2.44300000      -1.61080000
