20
Properties=species:S:1:pos:R:3 gdb_111196=T pbc="F F F"
C       -0.07700000       1.54280000       0.16060000
C       -0.17140000       0.01640000       0.03730000
C        0.51500000      -0.49680000      -1.21840000
C        2.07470000      -0.61160000      -1.34570000
C        2.03330000      -1.86730000      -0.42000000
C        0.86230000      -2.00630000      -1.43850000
N        1.80390000      -1.52030000      -2.51650000
C        2.75100000      -2.26100000      -3.17630000
O        3.89160000      -1.90850000      -3.38360000
H        0.96420000       1.87030000       0.24950000
H       -0.50570000       2.03860000      -0.71680000
H       -0.61570000       1.90040000       1.04300000
H        0.23450000      -0.44680000       0.94200000
H       -1.22760000      -0.27960000      -0.00630000
H        0.07090000      -0.05040000      -2.11300000
H        2.82610000       0.17330000      -1.40270000
H        2.86080000      -2.56750000      -0.54330000
H        1.78340000      -1.72260000       0.63170000
H        0.18680000      -2.84630000      -1.60490000
H        2.32080000      -3.19570000      -3.59300000
