23
Properties=species:S:1:pos:R:3 gdb_123194=T pbc="F F F"
C        0.00910000       1.57990000      -0.04540000
C        0.02590000       0.04900000      -0.02980000
C        0.71610000      -0.55110000      -1.25900000
C        0.73240000      -2.07310000      -1.24280000
O        1.38550000      -2.53410000      -2.40870000
C        1.45520000      -3.93720000      -2.49310000
C        2.18330000      -4.28670000      -3.79590000
C        2.31360000      -5.72440000      -3.98830000
C        2.40670000      -6.91510000      -4.12170000
H        1.02640000       1.98590000      -0.07090000
H       -0.51960000       1.96020000      -0.92640000
H       -0.48870000       1.98280000       0.84200000
H        0.53060000      -0.30190000       0.88010000
H       -1.00390000      -0.32740000       0.03080000
H        0.21270000      -0.21620000      -2.17430000
H        1.75030000      -0.19080000      -1.32330000
H        1.25370000      -2.44310000      -0.34280000
H       -0.29730000      -2.46880000      -1.20150000
H        1.99960000      -4.35920000      -1.63280000
H        0.44790000      -4.38450000      -2.49320000
H        1.63570000      -3.83800000      -4.63320000
H        3.17200000      -3.81290000      -3.78140000
H        2.49530000      -7.96480000      -4.25290000
