13
Properties=species:S:1:pos:R:3 gdb_3710=T pbc="F F F"
C        0.02780000       1.52230000      -0.07670000
C        0.00520000       0.03310000       0.01330000
N       -0.03500000      -0.73490000      -1.04150000
O       -0.04420000      -2.01970000      -0.57410000
N       -0.00950000      -2.04810000       0.79240000
C        0.02140000      -0.80160000       1.17900000
C        0.06520000      -0.40670000       2.61720000
H        0.92950000       1.93040000       0.39210000
H        0.00600000       1.83640000      -1.12140000
H       -0.83430000       1.95990000       0.43780000
H        0.96330000       0.18060000       2.83600000
H       -0.80040000       0.20990000       2.88160000
H        0.06680000      -1.29460000       3.25120000
