17
Properties=species:S:1:pos:R:3 gdb_46249=T pbc="F F F"
N        0.02200000       1.21020000      -0.33430000
C        0.01880000      -0.00680000      -0.02920000
O        1.02590000      -0.82970000       0.42210000
C        0.11410000      -1.97600000       0.49170000
C       -1.04090000      -1.09250000      -0.00380000
C       -2.39130000      -0.96320000       0.73890000
C       -3.05110000      -1.28340000      -0.59900000
C       -2.57820000      -0.38130000      -1.66400000
N       -1.70860000      -1.51950000      -1.28130000
H        0.95010000       1.62430000      -0.23200000
H        0.41390000      -2.76260000      -0.20350000
H        0.04020000      -2.35380000       1.51460000
H       -2.51890000      -1.75060000       1.48510000
H       -2.62540000       0.00430000       1.19000000
H       -3.87930000      -1.96940000      -0.74050000
H       -3.00660000      -0.51330000      -2.65250000
H       -2.24380000       0.62610000      -1.43380000
