18
Properties=species:S:1:pos:R:3 gdb_73077=T pbc="F F F"
C       -0.16570000       1.46630000       0.10180000
C        0.00590000      -0.03540000      -0.05240000
C       -1.04050000      -0.92350000       0.69710000
C        0.09660000      -1.36700000       1.64780000
N        1.09350000      -0.64410000       0.78310000
C        1.87640000      -1.38980000      -0.08300000
C        1.58450000      -1.21900000      -1.39520000
C        0.36790000      -0.41090000      -1.50200000
O       -0.24640000      -0.05690000      -2.48760000
H        0.75470000       1.99150000      -0.17010000
H       -0.95940000       1.79890000      -0.57400000
H       -0.42900000       1.73840000       1.12810000
H       -1.85890000      -0.36780000       1.15730000
H       -1.45280000      -1.72740000       0.08580000
H        0.05450000      -0.93480000       2.65020000
H        0.27640000      -2.44180000       1.72570000
H        2.63430000      -2.04160000       0.34060000
H        2.12220000      -1.63160000      -2.23590000
