11
Properties=species:S:1:pos:R:3 gdb_1018=T pbc="F F F"
C        0.04140000      -1.18890000      -0.00420000
C        0.01310000       0.01450000       0.00270000
C       -0.03360000       1.42950000       0.01090000
C       -1.15870000       2.22540000       0.03050000
N       -0.69320000       3.51510000       0.03110000
C        0.67170000       3.45500000       0.01220000
N        1.10600000       2.22090000      -0.00030000
H        0.07450000      -2.24980000      -0.01040000
H       -2.20850000       1.98750000       0.04350000
H       -1.25730000       4.34830000       0.04330000
H        1.28650000       4.34260000       0.00870000
