16
Properties=species:S:1:pos:R:3 gdb_123575=T pbc="F F F"
C       -0.06420000       1.44100000       0.11800000
C        1.28300000       0.75430000       0.03970000
C        2.02930000       0.41630000       1.34420000
C        1.06000000      -0.50110000       2.03350000
N        0.90850000      -1.09530000       3.20220000
C       -0.29800000      -1.71930000       3.04260000
N       -0.90110000      -1.53420000       1.87070000
N        0.00530000      -0.76060000       1.23740000
C       -0.00080000      -0.05900000      -0.01210000
H       -0.39870000       1.84700000       1.06710000
H       -0.37890000       2.00320000      -0.75450000
H        1.86800000       0.89220000      -0.86050000
H        2.98140000      -0.08480000       1.13910000
H        2.25320000       1.30310000       1.94490000
H       -0.74500000      -2.33230000       3.81130000
H       -0.36190000      -0.59590000      -0.87910000
