18
Properties=species:S:1:pos:R:3 gdb_80444=T pbc="F F F"
C       -0.02540000       1.50650000      -0.03660000
C        0.00020000       0.00490000       0.05960000
N       -1.24190000      -0.68230000      -0.21860000
C       -1.25450000      -1.71240000       0.54210000
N       -2.17740000      -2.72210000       0.55300000
O       -0.22050000      -1.89040000       1.41460000
C        0.67120000      -0.81600000       1.14890000
C        1.27130000      -0.79420000      -0.24510000
N        1.27960000      -1.94170000      -1.10550000
H        0.94570000       1.93410000       0.22940000
H       -0.26630000       1.81810000      -1.05810000
H       -0.78370000       1.92740000       0.63160000
H       -3.04690000      -2.47840000       0.10390000
H       -2.28030000      -3.19720000       1.43730000
H        1.18530000      -0.46710000       2.03560000
H        2.16170000      -0.16860000      -0.30480000
H        1.32760000      -2.80300000      -0.57110000
H        0.42440000      -1.98040000      -1.65080000
