17
Properties=species:S:1:pos:R:3 gdb_84254=T pbc="F F F"
O       -0.01440000       1.37850000       0.27600000
C        0.06310000       0.00130000      -0.03450000
C        0.70580000      -0.77790000       1.12570000
C       -0.00740000      -1.87120000       1.40860000
C       -0.88380000      -2.15270000       2.62020000
C       -2.05000000      -1.74520000       1.63230000
O       -2.07180000      -0.35050000       1.19020000
C       -1.34050000      -0.65010000      -0.05950000
C       -1.16210000      -2.08610000       0.42390000
H       -0.61920000       1.44050000       1.02850000
H        0.56220000      -0.06720000      -1.00860000
H        1.36760000      -0.25690000       1.80920000
H       -1.02330000      -3.20840000       2.88140000
H       -0.70620000      -1.56230000       3.52140000
H       -3.05860000      -2.11250000       1.83920000
H       -1.95750000      -0.40840000      -0.92990000
H       -1.23010000      -2.97590000      -0.19700000
