17
Properties=species:S:1:pos:R:3 gdb_43153=T pbc="F F F"
O        0.00500000      -0.06690000       0.15570000
C       -0.01200000       1.12400000       0.07760000
C       -1.09020000       2.22590000      -0.04060000
C       -0.80850000       3.01910000       1.26140000
C        0.76770000       3.04020000       1.23850000
C        1.03250000       2.25420000      -0.07150000
C       -0.05070000       2.87110000      -0.98280000
C       -0.07500000       3.12830000      -2.41400000
O       -0.07510000       4.20060000      -1.44120000
H       -2.11930000       2.02400000      -0.32670000
H       -1.23180000       4.02420000       1.20780000
H       -1.21230000       2.51820000       2.14410000
H        1.16230000       4.05620000       1.17300000
H        1.21020000       2.55060000       2.10890000
H        2.05790000       2.07980000      -0.38740000
H        0.83810000       3.03940000      -3.00000000
H       -1.00200000       3.01490000      -2.97330000
