17
Properties=species:S:1:pos:R:3 gdb_32470=T pbc="F F F"
C       -0.00850000       1.38320000      -0.07990000
N       -0.00200000      -0.06500000       0.03370000
C       -1.11040000      -0.66360000       0.09290000
N       -1.30840000      -2.03070000       0.19910000
C       -2.67360000      -2.31440000       0.16290000
C       -3.23140000      -3.70120000       0.21710000
O       -4.60010000      -3.73470000      -0.12860000
C       -3.30220000      -1.13400000       0.09070000
O       -2.37520000      -0.10240000       0.05910000
H        0.97130000       1.71630000      -0.43370000
H       -0.77170000       1.76040000      -0.77470000
H       -0.18750000       1.86470000       0.89200000
H       -0.55090000      -2.68220000       0.09670000
H       -2.62560000      -4.36700000      -0.42190000
H       -3.16760000      -4.10440000       1.23520000
H       -4.68040000      -3.38420000      -1.02270000
H       -4.34130000      -0.86060000       0.09220000
