21
Properties=species:S:1:pos:R:3 gdb_72698=T pbc="F F F"
C       -0.09910000       1.50750000       0.07350000
C       -0.00710000      -0.01720000       0.06580000
C        1.19620000      -0.49960000      -0.82550000
C        2.08120000      -0.55710000       0.48030000
C        0.75940000      -0.68480000       1.23740000
C       -0.11720000      -0.49350000       2.48400000
C       -0.98190000      -1.45980000       1.59960000
C       -1.38010000      -0.71600000       0.28970000
O        0.26350000      -2.06490000       1.15800000
H        0.88510000       1.97840000       0.17130000
H       -0.53660000       1.86300000      -0.86690000
H       -0.73070000       1.87950000       0.88700000
H        1.04560000      -1.49200000      -1.24890000
H        1.52230000       0.18990000      -1.60800000
H        2.78330000      -1.38460000       0.59710000
H        2.59710000       0.38730000       0.66550000
H        0.23910000      -1.01640000       3.37240000
H       -0.47950000       0.50870000       2.72490000
H       -1.69020000      -2.16040000       2.04360000
H       -2.20330000      -0.00400000       0.40280000
H       -1.65580000      -1.44830000      -0.47340000
