20
Properties=species:S:1:pos:R:3 gdb_81868=T pbc="F F F"
C        0.21800000       1.64250000      -0.01970000
C        0.09880000       0.11880000      -0.02670000
C        0.75030000      -0.60180000      -1.18850000
N        2.22850000      -0.54180000      -1.12340000
C        1.52940000      -1.78250000      -0.71500000
C        1.69350000      -3.04240000      -1.52310000
C        1.42310000      -1.85690000       0.79700000
C        0.76130000      -0.53250000       1.20690000
O        0.74890000      -0.07100000       2.31730000
H        1.25920000       1.93580000      -0.17920000
H       -0.39470000       2.09290000      -0.80640000
H       -0.10650000       2.03680000       0.94660000
H       -0.96380000      -0.16750000       0.01650000
H        0.26980000      -0.60940000      -2.16250000
H        2.61690000      -0.66070000      -2.05620000
H        1.64770000      -2.83050000      -2.59690000
H        2.65620000      -3.52380000      -1.31550000
H        0.90550000      -3.76710000      -1.29070000
H        0.77520000      -2.68600000       1.11160000
H        2.38380000      -1.97340000       1.30550000
