18
Properties=species:S:1:pos:R:3 gdb_9205=T pbc="F F F"
C        0.11830000       1.53440000      -0.20310000
C       -0.05510000       0.05120000       0.11350000
C       -1.48650000      -0.44260000      -0.03060000
O       -2.41420000       0.30760000      -0.22690000
C       -1.68700000      -1.95580000       0.06820000
C       -3.14280000      -2.35090000       0.34020000
C       -3.41000000      -3.79480000      -0.00710000
O       -3.89290000      -4.61170000       0.73290000
H        1.15520000       1.84420000      -0.04710000
H       -0.15270000       1.74760000      -1.24060000
H       -0.52770000       2.14410000       0.43290000
H        0.59080000      -0.57620000      -0.51580000
H        0.25660000      -0.17060000       1.14460000
H       -1.35030000      -2.37430000      -0.89320000
H       -1.00770000      -2.37240000       0.82050000
H       -3.42270000      -2.17500000       1.38170000
H       -3.78300000      -1.71890000      -0.29000000
H       -3.11740000      -4.07030000      -1.04990000
