16
Properties=species:S:1:pos:R:3 gdb_70162=T pbc="F F F"
C       -0.32010000       1.52090000       0.02320000
C        0.06120000       0.06300000       0.01100000
C       -0.67600000      -0.96270000       0.89440000
C        0.77130000      -0.68970000       1.10510000
O        1.65480000      -1.65660000       0.54630000
C        1.56710000      -1.64680000      -0.81840000
N        2.17610000      -2.41850000      -1.60630000
C        0.62090000      -0.52480000      -1.24540000
O        0.43800000      -0.15310000      -2.37340000
H        0.53050000       2.15210000      -0.25160000
H       -1.11860000       1.70660000      -0.70100000
H       -0.67240000       1.83040000       1.01110000
H       -1.38850000      -0.53610000       1.59210000
H       -0.95840000      -1.92400000       0.47810000
H        1.17070000      -0.23130000       2.00090000
H        2.75760000      -3.08380000      -1.09140000
