13
Properties=species:S:1:pos:R:3 gdb_20746=T pbc="F F F"
C       -0.02770000       1.48200000      -0.01340000
C       -0.00490000      -0.00860000      -0.00520000
N       -0.03390000      -0.64770000      -1.13200000
N       -0.01020000      -1.99460000      -1.02990000
N        0.03940000      -2.73580000       0.07760000
N        0.06940000      -2.15530000       1.20330000
C        0.04990000      -0.73510000       1.26940000
N        0.07830000      -0.10840000       2.38210000
H        0.85730000       1.87030000       0.50100000
H       -0.06620000       1.85810000      -1.03660000
H       -0.88960000       1.84380000       0.55660000
H       -0.03170000      -2.51230000      -1.89380000
H        0.11490000      -0.78840000       3.14630000
