16
Properties=species:S:1:pos:R:3 gdb_47634=T pbc="F F F"
O       -0.11640000       1.01240000      -1.59590000
C       -0.00020000       1.33790000      -0.44170000
C       -1.17790000       1.27430000       0.52190000
C       -1.61010000       2.66550000       1.00340000
N       -0.78240000       3.17780000       2.08090000
C        0.57220000       3.19520000       2.10280000
C        1.49870000       2.63270000       1.27970000
C        1.38250000       1.81410000       0.08390000
O        2.36460000       1.44690000      -0.53750000
H       -2.00270000       0.80890000      -0.02220000
H       -0.93180000       0.65030000       1.38930000
H       -1.61860000       3.36350000       0.15120000
H       -2.63300000       2.61070000       1.38490000
H       -1.24190000       3.78100000       2.74140000
H        0.95570000       3.75430000       2.95290000
H        2.53250000       2.82170000       1.54820000
