13
Properties=species:S:1:pos:R:3 gdb_123333=T pbc="F F F"
C       -0.54580000      -0.66560000      -1.11190000
C       -0.16870000       0.12180000      -0.28710000
C        0.29420000       1.07820000       0.70850000
C        1.53670000       1.85060000       0.31730000
C        2.22500000       1.70150000      -0.88420000
N        3.30580000       2.42700000      -1.13300000
N        3.71320000       3.29540000      -0.21140000
N        3.06780000       3.44100000       0.92510000
N        1.98190000       2.73150000       1.20830000
H       -0.89040000      -1.36580000      -1.83290000
H       -0.49370000       1.80750000       0.93610000
H        0.50210000       0.57220000       1.65990000
H        1.91030000       0.99950000      -1.64940000
