18
Properties=species:S:1:pos:R:3 gdb_99714=T pbc="F F F"
C        0.60420000       1.11050000       0.61420000
C        0.23240000      -0.15440000      -0.12200000
O        1.02480000      -0.73030000      -0.83830000
C       -1.20580000      -0.67670000       0.02930000
C       -1.34300000      -2.10740000      -0.55190000
O       -1.09530000      -2.14770000      -1.93490000
C       -1.65790000      -0.67460000       1.48960000
N       -2.97930000      -0.40140000       1.68780000
O       -0.89830000      -0.93520000       2.40460000
H        1.55540000       1.48950000       0.23930000
H       -0.17690000       1.87110000       0.50790000
H        0.68730000       0.87870000       1.68020000
H       -1.84360000      -0.00870000      -0.56680000
H       -0.67390000      -2.77280000       0.01210000
H       -2.36830000      -2.46110000      -0.39980000
H       -0.16510000      -1.90020000      -2.02950000
H       -3.62300000      -0.28160000       0.92540000
H       -3.35050000      -0.51420000       2.61770000
