18
Properties=species:S:1:pos:R:3 gdb_110733=T pbc="F F F"
C        0.01940000       1.59140000      -0.05050000
C        0.01770000       0.09290000       0.01240000
C       -0.14800000      -0.73350000       1.30120000
C       -1.21800000      -1.77880000       1.53750000
O       -0.82500000      -2.72010000       2.52400000
C        1.04180000      -0.94750000       0.42670000
O        0.68880000      -1.80560000      -0.69270000
C       -0.19950000      -0.82820000      -1.15050000
N       -0.85380000      -0.76300000      -2.21630000
H        0.58900000       1.94780000      -0.91420000
H       -1.00140000       1.97590000      -0.14330000
H        0.45880000       2.02140000       0.85430000
H        0.08280000      -0.13560000       2.18190000
H       -2.12040000      -1.29630000       1.92560000
H       -1.48800000      -2.27000000       0.59440000
H       -0.08750000      -3.22290000       2.16250000
H        2.09100000      -0.87480000       0.67990000
H       -0.69830000      -1.58530000      -2.80180000
