20
Properties=species:S:1:pos:R:3 gdb_124591=T pbc="F F F"
C        0.15420000       1.45720000       0.01960000
C       -0.01730000      -0.06500000      -0.06870000
C       -1.48010000      -0.49280000       0.04680000
N        0.59630000      -0.58260000      -1.28980000
C        0.03510000      -0.87820000      -2.48400000
C        1.05630000      -1.20600000      -3.35260000
C        2.23010000      -1.06980000      -2.57470000
N        3.55300000      -1.22770000      -2.99310000
N        1.95210000      -0.69400000      -1.32860000
H        1.20880000       1.72140000      -0.08500000
H       -0.40990000       1.95720000      -0.77480000
H       -0.20680000       1.82740000       0.98450000
H        0.55130000      -0.52450000       0.74660000
H       -2.10240000      -0.01670000      -0.71820000
H       -1.58820000      -1.57730000      -0.04180000
H       -1.87090000      -0.18680000       1.02090000
H       -1.03130000      -0.84230000      -2.63590000
H        0.96830000      -1.49870000      -4.38630000
H        3.68040000      -2.00920000      -3.62180000
H        4.18190000      -1.30540000      -2.20390000
