8
Properties=species:S:1:pos:R:3 gdb_189=T pbc="F F F"
O        0.00200000       0.00310000       0.00320000
C       -0.01410000       1.18960000       0.00950000
O       -1.13210000       1.98230000       0.02880000
C       -0.70690000       3.29550000       0.02990000
C        0.62130000       3.31360000       0.01220000
O        1.08200000       2.01250000      -0.00080000
H       -1.46210000       4.06070000       0.04410000
H        1.35540000       4.09920000       0.00650000
