21
Properties=species:S:1:pos:R:3 gdb_63918=T pbc="F F F"
C       -0.21000000       1.61020000       0.03510000
C       -0.00410000       0.09210000       0.01610000
C       -1.35100000      -0.63790000       0.04990000
O        0.66360000      -0.30130000      -1.21000000
C        1.94780000      -0.80690000      -0.88560000
C        2.87940000       0.30450000      -0.30680000
C        2.41660000      -0.12470000       1.08770000
C        1.86150000      -1.43350000       0.53270000
C        0.92410000      -0.42770000       1.11680000
H        0.74230000       2.14360000       0.02560000
H       -0.79150000       1.92510000      -0.83660000
H       -0.75700000       1.90910000       0.93590000
H       -1.93190000      -0.38800000      -0.84290000
H       -1.19710000      -1.72040000       0.06490000
H       -1.93570000      -0.35430000       0.93130000
H        2.31360000      -1.39490000      -1.72650000
H        3.93430000       0.05410000      -0.45670000
H        2.69730000       1.32610000      -0.65310000
H        2.95840000       0.02920000       2.01390000
H        1.99190000      -2.46180000       0.84020000
H        0.49890000      -0.61250000       2.09710000
