17
Properties=species:S:1:pos:R:3 gdb_27879=T pbc="F F F"
C       -0.00370000       1.47080000       0.06950000
C        0.02590000      -0.03340000      -0.00170000
C        0.12440000      -0.69730000      -1.21420000
C        0.14910000      -2.10520000      -1.23140000
N        0.30040000      -2.79300000      -2.42030000
C        0.06930000      -2.77740000      -0.01220000
C       -0.02590000      -2.00680000       1.14400000
O       -0.10480000      -2.64570000       2.33320000
N       -0.04970000      -0.67980000       1.17610000
H        0.05680000       1.92590000      -0.92190000
H       -0.92370000       1.81060000       0.55640000
H        0.83120000       1.83830000       0.67510000
H        0.18720000      -0.13960000      -2.14230000
H        0.03260000      -2.30080000      -3.25820000
H        0.01350000      -3.75950000      -2.41850000
H        0.08320000      -3.85870000       0.05180000
H       -0.16400000      -1.94320000       2.99580000
