21
Properties=species:S:1:pos:R:3 gdb_92134=T pbc="F F F"
C        0.30480000       1.52660000      -0.04920000
C       -0.03170000       0.03870000       0.03230000
O        0.36060000      -0.58220000      -1.20150000
C        1.17460000      -1.74380000      -1.06010000
C        0.49380000      -2.76770000      -0.12990000
C        0.73930000      -2.14350000       1.23660000
C        1.97330000      -1.25990000       1.11540000
C        2.47490000      -1.38090000      -0.31610000
C        0.59990000      -0.64090000       1.23930000
H        1.38810000       1.68020000      -0.06500000
H       -0.11800000       1.95580000      -0.96180000
H       -0.10960000       2.06500000       0.81020000
H       -1.12630000      -0.06240000       0.11360000
H        1.33530000      -2.11040000      -2.07570000
H       -0.56390000      -2.88830000      -0.38460000
H        0.97810000      -3.74840000      -0.20600000
H        0.52890000      -2.70340000       2.14050000
H        2.67650000      -1.16010000       1.93410000
H        3.21750000      -2.18370000      -0.40140000
H        2.91340000      -0.46410000      -0.72100000
H        0.35680000      -0.17170000       2.18800000
