18
Properties=species:S:1:pos:R:3 gdb_13938=T pbc="F F F"
C       -0.45200000       1.38840000       0.11030000
C        0.15160000       0.00500000       0.00540000
O        1.35050000      -0.02060000      -0.80950000
C        2.06060000      -0.79510000       0.17660000
C        0.92290000      -0.61520000       1.19550000
C        1.11500000       0.07490000       2.55990000
C        0.52830000      -1.22600000       3.13900000
O        0.37050000      -1.78440000       1.81540000
H        0.26990000       2.10430000       0.51490000
H       -0.75860000       1.73920000      -0.88000000
H       -1.33840000       1.37530000       0.75390000
H       -0.58900000      -0.71690000      -0.36970000
H        2.19410000      -1.84280000      -0.12440000
H        3.03430000      -0.35640000       0.42650000
H        2.15190000       0.28730000       2.82650000
H        0.51420000       0.97190000       2.71780000
H        1.20860000      -1.82500000       3.75520000
H       -0.43270000      -1.13170000       3.65750000
