17
Properties=species:S:1:pos:R:3 gdb_118621=T pbc="F F F"
O        0.11070000       1.21970000      -0.07750000
C        0.05840000      -0.19630000      -0.04880000
C       -1.41630000      -0.57780000       0.03200000
C       -1.63350000      -2.10400000       0.06980000
N       -1.09900000      -2.74160000       1.26790000
C        0.03290000      -3.50150000       1.22900000
O        0.71800000      -3.66400000       0.24290000
C       -3.06210000      -2.42700000      -0.06240000
N       -4.19030000      -2.66140000      -0.14440000
H        1.03360000       1.48620000      -0.12120000
H        0.50770000      -0.63940000      -0.95110000
H        0.60170000      -0.60180000       0.81710000
H       -1.86520000      -0.11720000       0.91860000
H       -1.93830000      -0.16950000      -0.83920000
H       -1.09570000      -2.56660000      -0.76590000
H       -1.62240000      -2.67750000       2.12730000
H        0.26320000      -3.94970000       2.21340000
