20
Properties=species:S:1:pos:R:3 gdb_70571=T pbc="F F F"
C       -0.00670000       1.48370000      -0.03290000
C       -0.02380000      -0.03080000       0.02160000
C       -0.33580000      -0.71440000       1.33590000
C        1.06770000      -0.73800000       0.79050000
O        1.54480000      -1.96430000       0.31770000
C        1.76420000      -2.02640000      -1.08130000
C        0.51960000      -1.68050000      -1.87560000
N       -0.75250000      -2.12200000      -1.28190000
C       -0.41230000      -0.68700000      -1.28210000
H        0.62210000       1.84820000      -0.85410000
H       -1.01660000       1.88470000      -0.18210000
H        0.38230000       1.90830000       0.89730000
H       -0.54690000      -0.09050000       2.19810000
H       -0.87210000      -1.65430000       1.28320000
H        1.83280000      -0.13060000       1.27440000
H        2.58190000      -1.35250000      -1.38950000
H        2.08150000      -3.05510000      -1.28100000
H        0.63610000      -1.71420000      -2.95690000
H       -1.43390000      -2.31290000      -2.01120000
H       -0.96730000      -0.04400000      -1.96180000
