16
Properties=species:S:1:pos:R:3 gdb_34829=T pbc="F F F"
N       -0.06090000      -1.18190000      -0.07850000
C       -0.02880000      -0.02780000      -0.02800000
C       -0.03140000       1.42400000      -0.00420000
C        0.11080000       2.12590000       1.38580000
O        1.50330000       1.63120000       1.45980000
C        1.35120000       2.14940000       0.08230000
C        0.62900000       3.37330000       0.65930000
C        0.00730000       4.60130000       0.08990000
C        1.11180000       4.68710000       1.14250000
H       -0.76570000       1.84330000      -0.69540000
H       -0.52100000       2.01940000       2.26660000
H        2.20120000       2.07100000      -0.59410000
H        0.25400000       4.88410000      -0.92840000
H       -1.00230000       4.86020000       0.39200000
H        0.83540000       5.00290000       2.14280000
H        2.09140000       5.02670000       0.82290000
