17
Properties=species:S:1:pos:R:3 gdb_4918=T pbc="F F F"
C       -0.00950000       1.41650000       0.06720000
N        0.01940000      -0.01170000      -0.18400000
C       -1.19000000      -0.70580000      -0.04620000
C       -2.45990000      -0.17630000       0.01170000
N       -3.35140000      -1.24520000       0.04430000
C       -2.66050000      -2.42320000       0.04180000
N       -3.36360000      -3.64000000       0.16260000
C       -1.31640000      -2.13300000      -0.02900000
H        1.00490000       1.81800000       0.00130000
H       -0.61400000       1.91220000      -0.70140000
H       -0.43410000       1.68640000       1.04950000
H        0.77350000      -0.47250000       0.30640000
H       -2.81170000       0.84030000      -0.00560000
H       -4.32720000      -1.17790000       0.27330000
H       -3.86580000      -3.87810000      -0.68820000
H       -2.72340000      -4.39850000       0.36240000
H       -0.51300000      -2.85020000      -0.10850000
