15
Properties=species:S:1:pos:R:3 gdb_9214=T pbc="F F F"
C        0.16080000       1.33410000      -0.13810000
N       -0.16280000      -0.07900000      -0.22840000
C        0.59210000      -0.95860000      -0.93550000
O        1.59180000      -0.66210000      -1.56190000
C        0.12840000      -2.42060000      -0.84930000
O        0.35900000      -3.09420000      -2.07230000
C        1.64070000      -3.44810000      -2.34670000
O        1.94680000      -3.94260000      -3.38690000
H        1.10000000       1.48730000      -0.67010000
H       -0.61650000       1.94950000      -0.60330000
H        0.28060000       1.64450000       0.90500000
H       -1.00730000      -0.40780000       0.21020000
H        0.67150000      -2.90060000      -0.02290000
H       -0.94180000      -2.50960000      -0.64710000
H        2.32940000      -3.25840000      -1.50580000
