18
Properties=species:S:1:pos:R:3 gdb_125096=T pbc="F F F"
C        0.18530000       1.51680000       0.11920000
C        0.04080000       0.03430000      -0.00440000
C       -0.12220000      -0.74950000      -1.13210000
N       -0.19530000      -2.00900000      -0.62700000
N       -0.08680000      -2.02060000       0.71820000
N        0.05570000      -0.78340000       1.09020000
C       -0.20640000      -0.39840000      -2.55730000
C        0.38140000      -1.28900000      -3.63640000
C       -1.10940000      -1.15370000      -3.51500000
H        1.06500000       1.89110000      -0.41620000
H       -0.68880000       2.05000000      -0.27090000
H        0.29620000       1.77600000       1.17420000
H       -0.31420000      -2.88320000      -1.11290000
H       -0.12350000       0.66900000      -2.72890000
H        0.88000000      -0.80800000      -4.47020000
H        0.84490000      -2.21840000      -3.32220000
H       -1.67510000      -1.98970000      -3.11690000
H       -1.64120000      -0.57930000      -4.26480000
