15
Properties=species:S:1:pos:R:3 gdb_92777=T pbc="F F F"
O       -0.15250000       1.42250000       0.35580000
C       -0.00100000       0.06470000       0.03770000
C       -1.33040000      -0.70480000      -0.06910000
C       -1.14080000      -1.57640000      -1.28020000
C       -0.03730000      -1.27200000      -1.99260000
C        0.39140000      -1.90230000      -3.25960000
O       -0.17200000      -2.84680000      -3.76330000
C        0.64910000      -0.13230000      -1.34230000
O        1.51970000       0.58340000      -1.78480000
H        0.58390000       1.87990000      -0.07490000
H        0.64940000      -0.44730000       0.76960000
H       -1.58380000      -1.28550000       0.82320000
H       -2.15300000       0.00360000      -0.23130000
H       -1.83810000      -2.35780000      -1.56400000
H        1.28590000      -1.44070000      -3.72300000
