17
Properties=species:S:1:pos:R:3 gdb_55614=T pbc="F F F"
C       -0.24990000       1.47690000       0.02490000
C        0.14400000       0.01420000       0.05010000
O        0.62500000      -0.51120000       1.02670000
C       -0.07610000      -0.76120000      -1.24740000
C       -0.10570000      -2.29380000      -1.02120000
C       -1.35420000      -2.70280000      -0.36850000
C       -2.38520000      -3.01320000       0.16290000
C        0.10590000      -3.01740000      -2.27780000
C        0.29490000      -3.58490000      -3.31920000
H        0.11210000       1.97800000       0.92320000
H        0.14060000       1.97370000      -0.86990000
H       -1.34280000       1.55580000      -0.01950000
H       -0.98750000      -0.42670000      -1.75160000
H        0.75780000      -0.51380000      -1.91740000
H        0.72060000      -2.51790000      -0.33340000
H       -3.28880000      -3.30270000       0.63980000
H        0.45870000      -4.10290000      -4.23160000
