21
Properties=species:S:1:pos:R:3 gdb_79338=T pbc="F F F"
C       -0.12690000       1.54730000      -0.04370000
C        0.03400000       0.02820000      -0.00970000
C        0.92560000      -0.56270000      -1.10130000
C        2.34370000      -0.65040000      -0.53370000
C        2.28870000      -0.13030000       0.89780000
C        0.82900000      -0.56300000       1.19270000
C        0.87070000      -2.06460000       0.81720000
C        1.44610000      -1.87790000      -0.58560000
O        1.64250000      -2.93630000      -1.46260000
H        0.83700000       2.06310000      -0.07760000
H       -0.69110000       1.85560000      -0.93050000
H       -0.67250000       1.90590000       0.83630000
H       -0.96330000      -0.42970000      -0.04050000
H        0.75420000      -0.41290000      -2.15930000
H        3.20910000      -0.56500000      -1.17780000
H        3.00490000      -0.63020000       1.55970000
H        2.44830000       0.94850000       0.98280000
H        0.44430000      -0.32280000       2.18430000
H        1.52590000      -2.64930000       1.47430000
H       -0.11990000      -2.53110000       0.80440000
H        2.39060000      -3.45330000      -1.14400000
