19
Properties=species:S:1:pos:R:3 gdb_38656=T pbc="F F F"
C        0.03960000       1.61770000       0.04710000
C        1.56930000       1.78790000       0.03860000
O        1.96100000       0.83800000       1.07860000
C        1.55800000      -0.15650000       0.09890000
C        2.09120000       0.77010000      -1.01740000
C        1.52760000       0.64510000      -2.43790000
C        0.24830000      -0.15560000      -2.48800000
C       -0.44480000      -0.45000000      -1.38800000
C        0.02040000       0.04820000      -0.04340000
H       -0.38060000       1.99490000       0.98210000
H       -0.46890000       2.09570000      -0.79360000
H        1.99170000       2.78580000       0.16220000
H        1.92860000      -1.16300000       0.29040000
H        3.18240000       0.78170000      -1.00450000
H        1.37280000       1.64240000      -2.87740000
H        2.27500000       0.16550000      -3.08320000
H       -0.08730000      -0.49280000      -3.46500000
H       -1.35670000      -1.03700000      -1.44540000
H       -0.53120000      -0.40850000       0.77910000
