18
Properties=species:S:1:pos:R:3 gdb_100445=T pbc="F F F"
C        0.20340000       1.10300000      -0.68550000
C        0.07460000      -0.21650000       0.10190000
C        0.61240000      -0.07780000       1.53730000
O        1.98870000       0.24790000       1.44090000
C       -1.30320000      -0.69640000       0.12790000
C       -2.44730000      -1.07600000       0.17190000
C       -3.82230000      -1.53630000       0.29900000
N       -4.42820000      -1.79890000      -0.89670000
O       -4.38010000      -1.66510000       1.37210000
H        1.24180000       1.43820000      -0.66310000
H       -0.10740000       0.96850000      -1.72450000
H       -0.42580000       1.87900000      -0.23890000
H        0.69610000      -0.97500000      -0.39380000
H        0.04300000       0.70450000       2.06180000
H        0.45680000      -1.02340000       2.07570000
H        2.32930000       0.38870000       2.32870000
H       -3.92400000      -1.74790000      -1.76420000
H       -5.36390000      -2.17020000      -0.88470000
