17
Properties=species:S:1:pos:R:3 gdb_78413=T pbc="F F F"
O       -0.00550000       1.29640000       0.07990000
C        0.01280000      -0.09710000      -0.02970000
C       -1.36480000      -0.68500000      -0.00680000
C       -0.54790000      -0.65960000      -1.31070000
C       -0.52020000      -2.20750000      -1.32860000
C       -1.36720000      -2.23050000      -0.01280000
C       -0.24230000      -3.00250000       0.73720000
C        0.62150000      -2.90620000      -0.54820000
O        1.72650000      -3.26670000      -0.82870000
H        0.72000000       1.64450000      -0.44950000
H        0.85150000      -0.57700000       0.47650000
H       -2.19860000      -0.05730000       0.28210000
H       -0.66490000      -0.02980000      -2.18400000
H       -0.84970000      -2.67960000      -2.25470000
H       -2.35800000      -2.68080000      -0.00770000
H        0.18200000      -2.56970000       1.64650000
H       -0.50840000      -4.04500000       0.94400000
