20
Properties=species:S:1:pos:R:3 gdb_68164=T pbc="F F F"
C       -0.07040000       1.55570000       0.02880000
C        0.02830000       0.04070000       0.01390000
C        1.08690000      -0.64910000      -0.89890000
C        1.14090000      -1.77300000       0.17570000
C        0.70620000      -0.69460000       1.20950000
C       -0.02080000      -2.72820000      -0.05460000
O        0.07210000      -3.93970000      -0.06400000
N       -1.20470000      -2.06600000      -0.25430000
C       -1.33620000      -0.61520000      -0.24660000
H        0.90970000       2.00540000       0.21540000
H       -0.43880000       1.94150000      -0.92900000
H       -0.75320000       1.90390000       0.81260000
H        0.79560000      -0.92210000      -1.91710000
H        2.01910000      -0.07810000      -0.92570000
H        2.05810000      -2.33860000       0.32910000
H        1.56590000      -0.13220000       1.58430000
H        0.07950000      -1.00760000       2.04930000
H       -2.01580000      -2.64420000      -0.41310000
H       -2.04760000      -0.30240000       0.53150000
H       -1.73310000      -0.26470000      -1.21040000
