16
Properties=species:S:1:pos:R:3 gdb_55557=T pbc="F F F"
N        0.24230000       1.01010000       0.78820000
C        0.15000000      -0.14500000       0.02420000
O        1.06430000      -0.60250000      -0.61230000
N       -1.11550000      -0.74430000       0.15340000
C       -1.61140000      -1.79650000      -0.61170000
O       -1.13860000      -2.19960000      -1.64150000
N       -2.81670000      -2.27240000      -0.02960000
C       -3.23910000      -3.61270000      -0.39550000
C       -2.72330000      -3.34490000       0.97600000
H        1.09090000       1.52540000       0.60770000
H       -0.58060000       1.58640000       0.88260000
H       -1.70980000      -0.44430000       0.91060000
H       -4.30590000      -3.72920000      -0.55870000
H       -2.59310000      -4.14780000      -1.08450000
H       -1.73100000      -3.71700000       1.21790000
H       -3.40300000      -3.25560000       1.81840000
