23
Properties=species:S:1:pos:R:3 gdb_60347=T pbc="F F F"
C       -0.15850000       1.56880000       0.11860000
C       -0.04170000       0.04110000       0.01570000
C       -1.43240000      -0.60740000       0.05060000
C        0.72350000      -0.40850000      -1.24290000
C        2.19990000       0.00120000      -1.26820000
C        2.93830000      -0.51900000      -2.51790000
N        2.37700000       0.06530000      -3.73910000
C        4.39430000      -0.28380000      -2.38670000
N        5.52920000      -0.07220000      -2.31790000
H        0.81860000       2.05760000       0.17760000
H       -0.68590000       1.97810000      -0.75160000
H       -0.72180000       1.85700000       1.01220000
H        0.51670000      -0.31540000       0.89390000
H       -2.03380000      -0.29060000      -0.81000000
H       -1.36510000      -1.70010000       0.02420000
H       -1.97780000      -0.32610000       0.95730000
H        0.66670000      -1.50340000      -1.31460000
H        0.22440000      -0.01970000      -2.13780000
H        2.30690000       1.09200000      -1.23900000
H        2.71340000      -0.38320000      -0.37930000
H        2.79320000      -1.60480000      -2.57920000
H        2.56450000       1.06450000      -3.75600000
H        2.83390000      -0.32610000      -4.55730000
