16
Properties=species:S:1:pos:R:3 gdb_50332=T pbc="F F F"
O       -0.33850000       0.10380000       0.18920000
C       -0.07830000       1.27550000       0.22040000
C        1.29990000       1.89290000       0.00760000
O        2.36040000       0.95270000      -0.00470000
C        2.85240000       0.89760000      -1.34010000
C        1.73920000       0.48440000      -2.32600000
N        1.41100000       1.93230000      -2.61430000
C        2.70190000       2.31930000      -1.93150000
C        1.41400000       2.66450000      -1.31340000
H       -0.86120000       2.04400000       0.42380000
H        1.44920000       2.59830000       0.84200000
H        3.80660000       0.37430000      -1.33890000
H        2.12670000       0.04570000      -3.24860000
H        0.92770000      -0.12560000      -1.92530000
H        3.43510000       2.99540000      -2.35270000
H        0.99590000       3.66170000      -1.38320000
