20
Properties=species:S:1:pos:R:3 gdb_85427=T pbc="F F F"
C        0.13440000       1.75610000      -0.01300000
C        0.09450000       0.23570000       0.06160000
O        0.74450000      -0.31640000      -1.10490000
C        1.96280000      -0.84530000      -0.79010000
N        2.73690000      -1.41490000      -1.60810000
C        2.23000000      -0.62860000       0.68100000
C        0.82220000      -0.42200000       1.26150000
C        0.77240000       0.35860000       2.57180000
O        0.16440000      -1.68260000       1.41210000
H        1.15840000       2.13780000       0.05280000
H       -0.28510000       2.08230000      -0.96800000
H       -0.45640000       2.20380000       0.79120000
H       -0.93880000      -0.12160000       0.04380000
H        2.32300000      -1.42220000      -2.54230000
H        2.76510000      -1.47230000       1.12040000
H        2.85120000       0.26460000       0.81370000
H        1.24060000       1.34270000       2.48550000
H       -0.26340000       0.48750000       2.89930000
H        1.30400000      -0.19340000       3.35500000
H        0.68000000      -2.21830000       2.02440000
