19
Properties=species:S:1:pos:R:3 gdb_10502=T pbc="F F F"
C       -1.55840000      -0.06790000      -0.22960000
C       -0.05740000      -0.17410000       0.05820000
C        0.75600000      -0.67220000      -1.12750000
C        2.05140000      -1.39800000      -0.87830000
C        0.85270000      -2.15380000      -1.39960000
N        0.71260000       0.16870000      -2.30030000
C        1.36320000       1.36270000      -2.38880000
O        2.09690000       1.82570000      -1.54290000
H       -1.75360000       0.62020000      -1.05870000
H       -1.98400000      -1.04220000      -0.49450000
H       -2.09920000       0.30770000       0.64400000
H        0.34090000       0.80150000       0.35770000
H        0.11050000      -0.85440000       0.90110000
H        2.86850000      -1.20720000      -1.56250000
H        2.35120000      -1.54800000       0.15270000
H        0.32590000      -2.82220000      -0.72720000
H        0.87470000      -2.48270000      -2.43320000
H        0.05810000      -0.06110000      -3.03220000
H        1.15050000       1.87140000      -3.35200000
