16
Properties=species:S:1:pos:R:3 gdb_19233=T pbc="F F F"
C       -0.11860000       1.60680000      -0.09840000
C        0.05700000       0.09650000      -0.04670000
C        0.75470000      -0.62830000      -1.19820000
C        2.19830000      -0.33810000      -1.25880000
N        1.73930000      -1.34190000      -0.27630000
C        1.14640000      -0.56100000       0.87710000
C        2.06970000       0.32030000       1.58130000
N        2.79420000       1.04030000       2.12370000
H        0.82480000       2.12370000      -0.29210000
H       -0.82350000       1.87760000      -0.89140000
H       -0.51600000       1.98620000       0.84830000
H       -0.90220000      -0.37970000       0.17220000
H        0.24110000      -1.16850000      -1.98670000
H        2.76110000      -0.79170000      -2.06820000
H        2.60090000       0.60700000      -0.90450000
H        0.71680000      -1.26380000       1.59370000
