20
Properties=species:S:1:pos:R:3 gdb_110679=T pbc="F F F"
O        0.05510000       1.49470000       0.61210000
C        0.15640000       0.21860000       0.00070000
C       -1.17820000      -0.50480000       0.10480000
C       -1.42530000      -1.99690000      -0.23530000
C       -0.20300000      -2.87610000       0.07130000
C        0.06240000      -2.64000000       1.58410000
C       -1.21420000      -1.97440000       2.08240000
C       -2.27600000      -2.01220000       1.06310000
N       -1.71320000      -0.68170000       1.50950000
H       -0.41720000       1.36040000       1.44330000
H        0.40990000       0.38940000      -1.05250000
H        0.97590000      -0.36500000       0.44260000
H       -1.92410000       0.11870000      -0.40030000
H       -1.90800000      -2.20500000      -1.19010000
H       -0.44520000      -3.92760000      -0.11650000
H        0.65780000      -2.62410000      -0.55560000
H        0.21330000      -3.58240000       2.12090000
H        0.95010000      -2.02940000       1.77220000
H       -1.46820000      -2.04420000       3.13500000
H       -3.31630000      -2.28550000       1.19480000
