18
Properties=species:S:1:pos:R:3 gdb_105498=T pbc="F F F"
C       -1.36140000       0.21560000      -0.07950000
O       -0.79810000      -1.07650000      -0.27740000
C        0.38670000      -1.11350000      -0.98990000
C        1.67130000      -0.46330000      -0.36250000
N        2.41510000      -1.66290000      -0.82840000
H        2.09050000      -1.14500000      -2.61490000
H        3.16380000      -1.99730000      -0.23200000
C        1.15610000      -2.45480000      -0.83150000
C        0.23320000      -0.73700000      -2.48170000
O       -0.80710000      -0.39610000      -2.97550000
O        1.36610000      -0.82400000      -3.20080000
H       -0.65770000       0.87900000       0.44470000
H       -1.66000000       0.67040000      -1.02690000
H       -2.23960000       0.07100000       0.55270000
H        2.03970000       0.48620000      -0.75920000
H        1.55890000      -0.40200000       0.72710000
H        0.90140000      -2.90330000       0.13570000
H        1.08070000      -3.20020000      -1.62700000
