17
Properties=species:S:1:pos:R:3 gdb_69280=T pbc="F F F"
O        0.16700000       1.37460000       0.09940000
C        0.05510000      -0.01510000       0.00770000
C       -0.50510000      -0.66410000      -1.21020000
C       -1.30700000      -0.68930000       0.10680000
C       -1.43250000      -1.96740000       0.85670000
O       -2.49850000      -2.46670000       1.13900000
C       -0.10300000      -2.58330000       1.30110000
O        0.77410000      -1.57930000       1.77600000
C        1.20270000      -0.69660000       0.75890000
H       -0.37210000       1.78300000      -0.58540000
H       -0.91970000      -0.03790000      -1.99440000
H       -0.06350000      -1.58780000      -1.57030000
H       -2.19180000      -0.06160000       0.12910000
H       -0.29990000      -3.27100000       2.12520000
H        0.35350000      -3.15490000       0.47240000
H        1.85670000      -1.22860000       0.04910000
H        1.78560000       0.08310000       1.25220000
