17
Properties=species:S:1:pos:R:3 gdb_28057=T pbc="F F F"
C       -0.03030000       1.51450000      -0.09180000
C        0.00120000       0.02450000      -0.02190000
N       -0.03220000      -0.79360000      -1.05630000
C        0.01670000      -2.06060000      -0.52680000
N       -0.00460000      -3.13960000      -1.40460000
C        0.03600000      -4.46250000      -1.07440000
N        0.10110000      -4.88040000       0.13290000
C        0.08100000      -2.02850000       0.84210000
N        0.06960000      -0.67510000       1.14380000
H        0.86760000       1.96450000       0.34750000
H       -0.08610000       1.81330000      -1.13930000
H       -0.89860000       1.93110000       0.43200000
H       -0.05570000      -2.88310000      -2.37660000
H        0.00580000      -5.10080000      -1.96530000
H        0.12080000      -5.89710000       0.14580000
H        0.13060000      -2.80960000       1.57560000
H        0.10590000      -0.28430000       2.06990000
