18
Properties=species:S:1:pos:R:3 gdb_69613=T pbc="F F F"
C        0.12350000       1.45750000       0.06860000
C       -0.08710000      -0.02260000      -0.04480000
C       -0.99600000      -0.81050000       0.81480000
N        0.46730000      -0.98220000       0.97700000
C        1.03790000      -1.80950000      -0.17500000
C        0.07690000      -2.25370000      -1.25680000
C        0.51140000      -0.82190000      -1.21970000
C        2.32600000      -2.38130000      -0.00280000
C        3.41800000      -2.86500000       0.14600000
H        1.16050000       1.72240000      -0.16550000
H       -0.52990000       1.99850000      -0.62610000
H       -0.09340000       1.80150000       1.08350000
H       -1.42550000      -0.29240000       1.66800000
H       -1.61800000      -1.61420000       0.43960000
H        0.57030000      -2.84220000      -2.02340000
H       -0.93870000      -2.57370000      -1.05480000
H        1.06450000      -0.35290000      -2.02270000
H        4.38190000      -3.28880000       0.28120000
