17
Properties=species:S:1:pos:R:3 gdb_42370=T pbc="F F F"
O       -0.55900000       0.30360000       1.99940000
C       -0.13420000       0.89700000       1.04330000
C        1.31100000       1.38470000       0.93170000
C        1.87560000       1.41770000      -0.40860000
C        2.37140000       1.44010000      -1.50190000
O       -0.86010000       1.24710000      -0.03210000
C       -2.23360000       0.88960000      -0.00980000
C       -3.23210000       1.99930000       0.12020000
C       -3.01200000       1.30670000      -1.21190000
H        1.33120000       2.39180000       1.37150000
H        1.90320000       0.74940000       1.59660000
H        2.79820000       1.45680000      -2.47390000
H       -2.41630000      -0.06080000       0.47430000
H       -4.14230000       1.80470000       0.67590000
H       -2.83870000       3.00400000       0.22320000
H       -2.47390000       1.85980000      -1.97300000
H       -3.77140000       0.63160000      -1.58940000
