17
Properties=species:S:1:pos:R:3 gdb_40794=T pbc="F F F"
C        0.15130000       1.45110000      -0.03720000
O        1.09380000       0.40030000      -0.26790000
C       -0.26190000       0.04670000       0.01430000
C       -0.47970000      -0.66050000       1.33020000
O       -1.86170000      -0.54290000       1.67320000
C       -2.32200000      -1.73170000       2.30970000
C       -1.36050000      -2.81910000       1.88740000
O       -1.15310000      -2.85670000       0.47160000
C       -0.20580000      -2.15290000       1.28530000
H        0.28660000       2.00470000       0.89100000
H       -0.09930000       2.05370000      -0.90830000
H       -0.81650000      -0.37750000      -0.82120000
H        0.16680000      -0.20190000       2.09640000
H       -2.31000000      -1.63390000       3.40700000
H       -3.35260000      -1.90860000       1.98510000
H       -1.31060000      -3.76830000       2.41310000
H        0.80920000      -2.53730000       1.30080000
