8
Properties=species:S:1:pos:R:3 gdb_23866=T pbc="F F F"
F        0.00790000       0.06300000      -0.00970000
C       -0.01280000       1.39190000       0.00230000
F        1.23510000       1.84930000      -0.01200000
F       -0.65210000       1.82960000      -1.07760000
C       -0.73710000       1.89110000       1.27590000
F       -0.09780000       1.45340000       2.35580000
F       -0.75780000       3.22000000       1.28790000
F       -1.98500000       1.43370000       1.29020000
