22
Properties=species:S:1:pos:R:3 gdb_113855=T pbc="F F F"
C        0.45620000       1.51870000       0.17840000
C       -0.21180000       0.17790000      -0.11540000
N        0.47940000      -0.49280000      -1.22050000
C        1.60830000      -1.36300000      -0.89020000
C        0.32830000      -1.93370000      -1.39280000
C       -0.54420000      -2.80260000      -0.51340000
C       -0.27150000      -4.32470000      -0.58320000
C       -0.03110000      -4.20790000       0.93440000
O       -0.22010000      -2.77670000       0.89980000
H        1.48780000       1.37470000       0.51670000
H        0.48010000       2.14320000      -0.71940000
H       -0.08410000       2.05520000       0.96450000
H       -0.24800000      -0.43390000       0.79680000
H       -1.24790000       0.34540000      -0.43550000
H        2.47800000      -1.28570000      -1.53770000
H        1.82160000      -1.53340000       0.16310000
H        0.26180000      -2.23920000      -2.43900000
H       -1.60170000      -2.54040000      -0.66150000
H       -1.11100000      -4.94880000      -0.89160000
H        0.61230000      -4.59040000      -1.16620000
H       -0.78080000      -4.69820000       1.56720000
H        0.96860000      -4.47960000       1.29170000
