18
Properties=species:S:1:pos:R:3 gdb_51908=T pbc="F F F"
O       -0.33110000       0.94490000       1.35980000
C       -0.04430000       1.47620000       0.31390000
N        1.10980000       1.24450000      -0.39760000
C        2.10820000       0.35800000      -0.00580000
N        3.13010000       0.20830000      -0.73900000
C        4.18040000      -0.71910000      -0.34050000
C        3.94540000      -1.57070000       0.88700000
C        5.08410000      -1.96170000       1.75220000
N        4.08320000      -0.99720000       2.23980000
H       -0.68990000       2.21850000      -0.19260000
H        1.26290000       1.73090000      -1.27010000
H        1.89330000      -0.13190000       0.94490000
H        4.37470000      -1.37270000      -1.20220000
H        5.10220000      -0.13390000      -0.20570000
H        3.11140000      -2.26630000       0.80710000
H        5.07860000      -2.92270000       2.25800000
H        6.07370000      -1.59740000       1.48630000
H        4.46020000      -0.05390000       2.17190000
