25
Properties=species:S:1:pos:R:3 gdb_113695=T pbc="F F F"
C        0.92280000       0.44930000       0.89870000
C        0.24000000      -0.91870000       0.72640000
C        0.87360000      -1.92290000       1.71020000
C       -1.25730000      -0.75450000       1.06620000
C        0.31640000      -1.51390000      -0.68670000
C        0.25090000      -0.74140000      -1.98140000
C        1.47730000      -1.56380000      -1.66030000
C        2.82920000      -0.91820000      -1.48650000
O        3.46610000      -0.94660000      -2.76060000
H        2.01030000       0.38410000       0.81360000
H        0.56360000       1.18250000       0.17010000
H        0.70190000       0.84670000       1.89530000
H        0.78450000      -1.57150000       2.74430000
H        0.38280000      -2.90030000       1.64710000
H        1.93690000      -2.06950000       1.49390000
H       -1.73870000      -0.04380000       0.38650000
H       -1.78950000      -1.70840000       0.98330000
H       -1.38850000      -0.38680000       2.08980000
H       -0.25770000      -2.43910000      -0.71660000
H       -0.42670000      -1.07180000      -2.76130000
H        0.37400000       0.33630000      -1.93600000
H        1.56980000      -2.50660000      -2.19400000
H        2.73030000       0.11380000      -1.12520000
H        3.42520000      -1.47370000      -0.74320000
H        4.34900000      -0.57910000      -2.65840000
