14
Properties=species:S:1:pos:R:3 gdb_34729=T pbc="F F F"
N       -0.02800000      -1.17170000      -0.10560000
C       -0.02240000      -0.01870000      -0.03010000
C       -0.02470000       1.43430000       0.04120000
C       -0.42270000       2.01640000       1.39770000
C        0.89470000       2.11760000       2.15810000
O        1.92650000       1.63950000       1.31530000
C        1.40450000       2.08010000       0.07960000
O        1.10090000       3.45050000       0.26380000
C        0.34380000       3.33280000       1.45540000
H       -0.60890000       1.85320000      -0.78170000
H       -1.38170000       1.84600000       1.86330000
H        1.05050000       1.97080000       3.21560000
H        2.09530000       1.91620000      -0.74100000
H        0.00980000       4.26290000       1.88900000
