25
Properties=species:S:1:pos:R:3 gdb_123043=T pbc="F F F"
C       -0.17480000       1.55600000       0.06230000
C       -0.06600000       0.02870000       0.05860000
C        0.75430000      -0.52140000       1.23040000
C        0.86300000      -2.04940000       1.23420000
C        1.68690000      -2.59820000       2.40460000
C        1.74360000      -4.11480000       2.42300000
C        2.29820000      -4.81790000       3.68300000
C        0.91890000      -5.50360000       3.73230000
O        0.43770000      -4.71780000       2.62350000
H        0.81460000       2.02360000       0.00410000
H       -0.76400000       1.91820000      -0.78600000
H       -0.65520000       1.91640000       0.97900000
H       -1.07160000      -0.41130000       0.08450000
H        0.38470000      -0.30440000      -0.88570000
H        1.76210000      -0.08250000       1.20480000
H        0.30460000      -0.18660000       2.17580000
H       -0.13930000      -2.49280000       1.27510000
H        1.30940000      -2.38550000       0.28780000
H        2.71570000      -2.21320000       2.35810000
H        1.26010000      -2.25160000       3.35510000
H        2.18970000      -4.48470000       1.48710000
H        3.15950000      -5.47070000       3.53480000
H        2.49940000      -4.13970000       4.51540000
H        0.92680000      -6.57650000       3.49910000
H        0.32190000      -5.34530000       4.63810000
