17
Properties=species:S:1:pos:R:3 gdb_28503=T pbc="F F F"
C       -0.05450000       1.51270000      -0.00480000
C       -0.00880000       0.00680000       0.00310000
N       -0.07300000      -0.62050000      -1.17160000
C       -0.02530000      -1.94950000      -1.22320000
C        0.08950000      -2.73480000      -0.07570000
O        0.13010000      -4.08820000      -0.22470000
C        0.15210000      -2.10070000       1.16030000
C        0.10560000      -0.70630000       1.21640000
N        0.22910000      -0.03230000       2.43090000
H        0.83280000       1.94940000       0.47060000
H       -0.10670000       1.86170000      -1.03680000
H       -0.93230000       1.90390000       0.52950000
H       -0.07850000      -2.42420000      -2.19840000
H        0.22100000      -4.50120000       0.64020000
H        0.24060000      -2.68180000       2.07610000
H       -0.01440000      -0.57570000       3.24640000
H       -0.19540000       0.88290000       2.45610000
