16
Properties=species:S:1:pos:R:3 gdb_126345=T pbc="F F F"
C        0.03540000       1.56940000      -0.05850000
C       -0.06680000       0.03890000       0.06210000
C        0.68010000      -0.50540000       1.24820000
C        0.06210000      -1.02820000       2.32860000
O        0.66510000      -1.52510000       3.42450000
N        2.04740000      -1.53710000       3.51820000
C        2.69530000      -1.05950000       2.51480000
C        2.13590000      -0.49200000       1.27040000
O        2.85620000      -0.07080000       0.37640000
H        1.07990000       1.87410000      -0.15180000
H       -0.50520000       1.91760000      -0.94340000
H       -0.39400000       2.06330000       0.81890000
H       -1.11770000      -0.26620000       0.11970000
H        0.35460000      -0.41570000      -0.84180000
H       -1.01550000      -1.10910000       2.43400000
H        3.77680000      -1.08820000       2.62060000
