23
Properties=species:S:1:pos:R:3 gdb_100687=T pbc="F F F"
C       -0.05600000       1.61220000       0.11010000
C       -0.00560000       0.08430000       0.02230000
C       -1.39640000      -0.54320000      -0.10340000
O       -2.06080000      -0.14210000      -1.30190000
C       -1.40140000      -2.08380000       0.04350000
C       -0.56590000      -2.79640000      -1.03210000
O       -0.86780000      -2.35100000       1.33850000
C       -2.85270000      -2.58890000       0.00970000
O       -2.81360000      -3.95960000       0.41190000
H        0.95050000       2.04010000       0.14300000
H       -0.58120000       2.03650000      -0.75050000
H       -0.58600000       1.93530000       1.01280000
H        0.60400000      -0.21640000      -0.84170000
H        0.48140000      -0.33750000       0.90660000
H       -2.02370000      -0.15430000       0.70840000
H       -1.45050000      -0.27950000      -2.03440000
H        0.49500000      -2.56840000      -0.90800000
H       -0.69830000      -3.87780000      -0.94600000
H       -0.87730000      -2.50500000      -2.04160000
H       -1.18780000      -3.23200000       1.57260000
H       -3.45390000      -1.99610000       0.71300000
H       -3.27810000      -2.47480000      -0.99400000
H       -3.71100000      -4.25260000       0.58970000
