19
Properties=species:S:1:pos:R:3 gdb_60622=T pbc="F F F"
C       -0.99990000       0.91200000       0.43010000
C       -0.09440000      -0.24690000       0.08090000
N        1.22220000       0.07740000      -0.48300000
C        1.15540000      -0.60000000       0.81590000
C        1.67480000       0.17050000       2.01420000
N        0.91140000       0.01830000       3.26650000
H        2.66980000       0.17660000       4.04500000
H        0.06570000       0.57730000       3.23980000
H        0.61970000      -0.94820000       3.38680000
C        3.15290000      -0.18600000       2.28960000
O        3.91860000      -0.54690000       1.43790000
O        3.50450000      -0.03420000       3.57480000
H       -0.43580000       1.74960000       0.84830000
H       -1.51090000       1.28000000      -0.46580000
H       -1.76920000       0.60880000       1.14960000
H       -0.61890000      -1.09860000      -0.35250000
H        1.49490000      -0.56920000      -1.21680000
H        1.41330000      -1.65810000       0.83640000
H        1.67720000       1.23570000       1.75860000
