13
Properties=species:S:1:pos:R:3 gdb_131961=T pbc="F F F"
C       -0.03550000       1.53250000       0.00390000
C       -0.01420000       0.04190000       0.04930000
N       -0.03380000      -0.66080000      -1.05710000
O       -0.00550000      -2.01480000      -0.67030000
C        0.03030000      -2.09450000       0.64990000
C        0.02710000      -0.83840000       1.17540000
N        0.05920000      -0.51620000       2.57130000
O        0.09260000      -1.45310000       3.36140000
O        0.05110000       0.67260000       2.87390000
H        0.85010000       1.94220000       0.49630000
H       -0.06710000       1.86500000      -1.03470000
H       -0.90470000       1.91860000       0.54230000
H        0.05520000      -3.07400000       1.09940000
