19
Properties=species:S:1:pos:R:3 gdb_92781=T pbc="F F F"
C        0.01470000       1.63110000      -0.04090000
C        0.12590000       0.11650000       0.09890000
C        0.68470000      -0.61010000      -1.15400000
N        1.60940000      -1.63820000      -0.65980000
C        1.77340000      -1.38960000       0.59410000
C        2.73990000      -2.25170000       1.33400000
O        3.07010000      -2.12780000       2.48880000
N        1.09750000      -0.31090000       1.12360000
C        0.76410000      -0.14990000       2.52740000
H        0.98910000       2.06720000      -0.28190000
H       -0.68620000       1.88400000      -0.84300000
H       -0.35460000       2.09820000       0.87720000
H       -0.86450000      -0.29090000       0.36670000
H       -0.09500000      -1.05730000      -1.77720000
H        1.24600000       0.08680000      -1.79310000
H        3.14570000      -3.04530000       0.67790000
H        1.55880000      -0.57160000       3.13920000
H        0.66240000       0.91340000       2.76510000
H       -0.18660000      -0.64670000       2.78000000
