18
Properties=species:S:1:pos:R:3 gdb_26943=T pbc="F F F"
C        0.05100000       1.47210000      -0.14700000
C       -0.01890000      -0.00350000      -0.01370000
C       -1.06620000      -0.86130000       0.15560000
C       -0.50210000      -2.18880000       0.21800000
C        0.83630000      -2.02570000       0.08220000
O        1.14890000      -0.70970000      -0.05950000
N       -2.41330000      -0.43240000       0.24170000
C       -3.44820000      -1.29480000      -0.34070000
C       -3.31500000      -1.17180000       1.13290000
H        0.49000000       1.77280000      -1.10540000
H       -0.96230000       1.87360000      -0.08520000
H        0.65690000       1.92300000       0.64740000
H       -1.02030000      -3.12660000       0.34560000
H        1.66970000      -2.70860000       0.06510000
H       -4.24160000      -0.77240000      -0.86780000
H       -3.13020000      -2.22720000      -0.80090000
H       -2.90640000      -2.02030000       1.67620000
H       -4.00950000      -0.55790000       1.69960000
