18
Properties=species:S:1:pos:R:3 gdb_72872=T pbc="F F F"
C       -0.13090000       1.52290000       0.19460000
C        0.07500000       0.04260000       0.03820000
C       -1.14900000      -0.92010000       0.02990000
N       -0.40210000      -1.79100000       0.94540000
C       -0.74540000      -2.96790000       1.51560000
O       -1.79940000      -3.54010000       1.33230000
C        0.77610000      -0.93680000       1.03740000
C        1.79660000      -1.13850000      -0.09730000
O        1.02930000      -0.29940000      -0.99330000
H        0.82220000       2.03280000       0.35960000
H       -0.58060000       1.93300000      -0.71650000
H       -0.79950000       1.73950000       1.03300000
H       -2.06880000      -0.52250000       0.47320000
H       -1.36880000      -1.36300000      -0.94510000
H        0.05330000      -3.34820000       2.18660000
H        1.12650000      -0.69740000       2.04250000
H        2.78430000      -0.70430000       0.10380000
H        1.91090000      -2.16230000      -0.46860000
