16
Properties=species:S:1:pos:R:3 gdb_79620=T pbc="F F F"
O        0.27760000       1.34290000       0.14350000
C        0.01450000       0.00010000       0.02590000
C       -1.34170000      -0.64830000       0.05280000
C       -2.56740000       0.19450000      -0.27790000
N       -2.26250000       1.60030000      -0.64080000
C       -2.52810000       0.59600000      -1.70570000
C       -1.26940000      -0.01600000      -2.31300000
O       -1.03040000      -0.04580000      -3.49460000
C       -0.49980000      -0.72390000      -1.23390000
H       -0.53540000       1.80880000      -0.13690000
H        0.79660000      -0.57670000       0.51300000
H       -1.51030000      -1.52330000       0.67060000
H       -3.49780000      -0.01080000       0.23780000
H       -3.08470000       2.18550000      -0.52110000
H       -3.39510000       0.72810000      -2.34150000
H        0.03960000      -1.60880000      -1.55020000
