23
Properties=species:S:1:pos:R:3 gdb_121356=T pbc="F F F"
C        0.00070000       1.55460000      -0.08380000
C       -0.00570000       0.02910000       0.04130000
C        0.80630000      -0.47220000       1.24050000
C        0.81350000      -1.99240000       1.35440000
O        1.39980000      -2.57430000       0.17980000
C        2.31110000      -3.60870000       0.53880000
C        2.00190000      -3.94640000       2.00130000
C        1.59190000      -2.57170000       2.54760000
O        2.72190000      -1.74650000       2.80210000
H        1.02040000       1.93660000      -0.20640000
H       -0.58490000       1.88730000      -0.94670000
H       -0.42240000       2.02970000       0.80890000
H       -1.04120000      -0.32800000       0.12740000
H        0.39930000      -0.42330000      -0.87030000
H        1.84090000      -0.12320000       1.17220000
H        0.39420000      -0.05680000       2.17020000
H       -0.22720000      -2.35040000       1.43020000
H        2.16980000      -4.45700000      -0.13940000
H        3.34490000      -3.25060000       0.43410000
H        1.16000000      -4.64370000       2.07190000
H        2.85060000      -4.38060000       2.53830000
H        0.95200000      -2.64050000       3.43810000
H        3.24040000      -2.16070000       3.49860000
