21
Properties=species:S:1:pos:R:3 gdb_100911=T pbc="F F F"
C       -0.22330000       1.48990000      -0.04790000
C        0.05350000      -0.02060000       0.00010000
C        0.85180000      -0.44990000      -1.23650000
O        0.04800000      -0.19390000      -2.38050000
C        0.78590000      -0.47100000       1.29410000
C        0.17790000       0.11120000       2.56890000
O        0.88010000      -0.47500000       3.65610000
C        0.73360000      -1.98870000       1.39390000
O        1.60510000      -2.73890000       1.03980000
H        0.69850000       2.06330000       0.10710000
H       -0.62340000       1.75020000      -1.03000000
H       -0.94870000       1.80300000       0.70780000
H       -0.91230000      -0.54420000      -0.05130000
H        1.79290000       0.12440000      -1.27370000
H        1.11990000      -1.51210000      -1.17000000
H        0.54100000      -0.46580000      -3.15960000
H        1.84180000      -0.18130000       1.23790000
H        0.27120000       1.20450000       2.57680000
H       -0.89760000      -0.13110000       2.61020000
H        0.48650000      -0.16770000       4.47800000
H       -0.23130000      -2.37960000       1.79600000
