21
Properties=species:S:1:pos:R:3 gdb_57434=T pbc="F F F"
C        0.31420000       1.56620000       0.18420000
C       -0.05370000       0.07130000       0.13090000
C        0.50670000      -0.66440000       1.35640000
C       -1.58500000      -0.06910000       0.08690000
N        0.42430000      -0.66740000      -1.06870000
C        0.75440000      -0.03460000      -2.32150000
C        1.81080000      -0.74450000      -1.51820000
C        2.89560000       0.01690000      -0.94170000
N        3.79760000       0.57500000      -0.47850000
H        1.39280000       1.73640000       0.17950000
H       -0.13260000       2.12110000      -0.64690000
H       -0.08180000       1.99870000       1.10810000
H        0.06670000      -0.26200000       2.27360000
H        0.27230000      -1.73130000       1.30000000
H        1.59230000      -0.55130000       1.42810000
H       -1.99300000       0.40100000      -0.81400000
H       -1.87460000      -1.12300000       0.08110000
H       -2.03930000       0.41640000       0.95610000
H        0.37000000      -0.50720000      -3.22210000
H        0.83910000       1.04870000      -2.36960000
H        2.12480000      -1.74220000      -1.81740000
