17
Properties=species:S:1:pos:R:3 gdb_39983=T pbc="F F F"
C        0.00110000       1.48730000      -0.02320000
O        1.17860000       0.66660000      -0.01590000
C       -0.10130000       0.03010000       0.01190000
C       -0.47510000      -0.81140000       1.23940000
C       -0.65990000      -2.21490000       0.66160000
C       -1.61880000      -2.35940000      -0.50380000
O       -1.90860000      -1.08100000      -1.07660000
C       -0.46730000      -0.82540000      -1.18180000
C       -0.14860000      -2.27980000      -0.77000000
H       -0.17270000       2.05890000       0.88750000
H       -0.18850000       2.02690000      -0.95050000
H        0.34120000      -0.78290000       1.96650000
H       -1.38180000      -0.43760000       1.72390000
H       -0.52980000      -3.08540000       1.29440000
H       -2.35390000      -3.14680000      -0.62060000
H       -0.17930000      -0.44570000      -2.16200000
H        0.57270000      -2.96670000      -1.18790000
