11
Properties=species:S:1:pos:R:3 gdb_24968=T pbc="F F F"
O        0.00560000       0.03120000       0.00290000
C       -0.00130000       1.21360000       0.00950000
O       -1.18280000       1.98670000       0.02990000
C       -0.72600000       3.26920000       0.03050000
C        0.61160000       3.32470000       0.01250000
O        1.10560000       2.03230000      -0.00130000
N        1.09770000       4.58410000       0.01270000
C       -0.00750000       5.31640000       0.03170000
N       -1.17180000       4.55660000       0.04380000
H       -0.04460000       6.39340000       0.03800000
H       -2.11730000       4.89950000       0.05860000
