18
Properties=species:S:1:pos:R:3 gdb_66200=T pbc="F F F"
C       -0.01840000       1.52990000       0.00550000
C       -0.03410000      -0.01070000       0.00100000
C        0.71050000      -0.53370000      -1.24270000
O        0.84000000      -1.95620000      -1.23400000
C        1.09520000      -2.51350000      -0.02440000
N        1.09590000      -1.97800000       1.11930000
C        0.72880000      -0.57410000       1.23050000
C       -1.41570000      -0.49620000      -0.00700000
C       -2.55550000      -0.87770000      -0.01380000
H        1.01070000       1.90320000      -0.02350000
H       -0.55890000       1.92990000      -0.85720000
H       -0.49820000       1.91310000       0.91010000
H        0.18000000      -0.28360000      -2.16360000
H        1.71270000      -0.08630000      -1.27690000
H        1.31520000      -3.57210000      -0.14650000
H        1.63950000       0.01950000       1.38780000
H        0.11690000      -0.45080000       2.12980000
H       -3.55960000      -1.22340000      -0.01600000
