23
Properties=species:S:1:pos:R:3 gdb_122292=T pbc="F F F"
O       -0.02730000       1.43170000       0.00870000
C        0.02790000       0.01240000       0.00180000
C       -1.40020000      -0.51460000       0.01220000
C       -1.47070000      -2.04580000       0.00590000
C       -2.88190000      -2.58200000       0.01580000
C       -4.00430000      -2.34570000      -1.04820000
C       -4.63900000      -3.26930000       0.02790000
C       -3.31490000      -4.08160000       0.01350000
C       -3.98620000      -2.35420000       1.10050000
H        0.87370000       1.76760000       0.00190000
H        0.55600000      -0.36120000      -0.89140000
H        0.57190000      -0.36920000       0.88190000
H       -1.91020000      -0.11670000       0.89750000
H       -1.92600000      -0.10880000      -0.86020000
H       -0.94930000      -2.43720000      -0.87910000
H       -0.93400000      -2.44510000       0.87820000
H       -4.40680000      -1.33140000      -1.12340000
H       -3.83870000      -2.78370000      -2.03740000
H       -5.65440000      -3.66670000       0.03490000
H       -3.09600000      -4.65190000      -0.89460000
H       -3.08080000      -4.65910000       0.91320000
H       -3.80390000      -2.80000000       2.08320000
H       -4.38730000      -1.34060000       1.19040000
