17
Properties=species:S:1:pos:R:3 gdb_70799=T pbc="F F F"
O       -0.13360000       1.36090000       0.07410000
C       -0.00390000      -0.01910000      -0.00590000
C        0.38760000      -0.76300000      -1.31900000
C       -0.42860000      -1.91040000      -0.69470000
O       -0.95480000      -2.98000000      -1.39470000
C       -0.00080000      -2.09140000       0.83570000
C        0.80690000      -0.80010000       1.05620000
O       -1.32980000      -1.67070000       1.26270000
C       -1.32980000      -0.91120000       0.05140000
H        0.74480000       1.75580000       0.05460000
H       -0.13860000      -0.36130000      -2.18920000
H        1.45090000      -0.89900000      -1.53960000
H       -0.23400000      -3.56430000      -1.65410000
H        0.32450000      -3.04010000       1.26240000
H        1.87110000      -0.87190000       0.81200000
H        0.67250000      -0.42770000       2.07400000
H       -2.28200000      -0.49960000      -0.27690000
