17
Properties=species:S:1:pos:R:3 gdb_36255=T pbc="F F F"
C        0.01870000      -1.28590000       0.00700000
C       -0.00880000      -0.08810000      -0.08260000
C       -0.04280000       1.36870000      -0.16500000
N        1.30760000       1.94120000      -0.06180000
C        1.88860000       1.96610000       1.31480000
C        2.72080000       3.24520000       0.98500000
N        2.27280000       4.04250000       2.17080000
C        1.07070000       3.22270000       1.81450000
C        1.34800000       3.39660000       0.27780000
H        0.04100000      -2.34530000       0.07380000
H       -0.45870000       1.67240000      -1.13420000
H       -0.73470000       1.75200000       0.60670000
H        2.18450000       1.06620000       1.85650000
H        3.71190000       3.30980000       0.53800000
H        2.70560000       3.67710000       3.02320000
H        0.13650000       3.28540000       2.37290000
H        1.01350000       4.18880000      -0.39210000
