18
Properties=species:S:1:pos:R:3 gdb_43878=T pbc="F F F"
O        0.01460000      -0.01140000      -0.29740000
C       -0.01680000       1.15060000      -0.01470000
C       -1.13590000       2.13640000       0.35040000
C       -0.03720000       3.14740000       0.78210000
C       -0.06610000       4.67250000       0.42530000
C        0.05610000       4.98530000       1.91990000
N       -1.11730000       4.34890000       2.56920000
C        0.08610000       3.53850000       2.26010000
C        1.06880000       2.22430000       0.19190000
H       -1.70390000       2.45190000      -0.53210000
H       -1.84480000       1.81510000       1.11770000
H        0.81230000       4.97320000      -0.15170000
H       -0.97310000       5.04560000      -0.05790000
H        0.56020000       5.82230000       2.38620000
H       -1.07300000       4.58120000       3.56160000
H        0.61800000       3.00540000       3.04010000
H        1.90190000       1.94690000       0.84500000
H        1.47960000       2.57770000      -0.76060000
