18
Properties=species:S:1:pos:R:3 gdb_34725=T pbc="F F F"
N       -0.06620000      -1.17560000      -0.11810000
C       -0.04300000      -0.02160000      -0.04990000
C       -0.01520000       1.43610000       0.03110000
C       -0.47740000       2.00260000       1.38030000
C        0.75290000       2.12140000       2.25790000
C        1.93760000       1.60970000       1.44320000
C        1.41910000       2.05330000       0.05590000
C        1.08400000       3.54320000       0.29720000
C        0.21520000       3.34280000       1.53550000
H       -0.60260000       1.83560000      -0.80330000
H       -1.46230000       1.79980000       1.77670000
H        0.68960000       2.01510000       3.33210000
H        2.88020000       2.10090000       1.70400000
H        2.07420000       0.52700000       1.51770000
H        2.04550000       1.81970000      -0.80290000
H        1.98040000       4.13910000       0.49520000
H        0.54350000       3.99790000      -0.53950000
H       -0.25660000       4.16230000       2.06060000
