19
Properties=species:S:1:pos:R:3 gdb_35963=T pbc="F F F"
C        0.08110000      -1.22150000      -0.02890000
C        0.05870000      -0.02070000      -0.01430000
C       -0.00540000       1.44020000       0.01890000
C       -0.80120000       1.93280000       1.24900000
C       -1.34680000       3.37090000       1.11250000
O       -0.63930000       4.20860000       0.21540000
C        0.75910000       4.30140000       0.42520000
C        1.50950000       3.25420000      -0.39460000
O        1.33770000       1.92590000       0.05850000
H        0.11130000      -2.28280000      -0.05250000
H       -0.49580000       1.79460000      -0.90150000
H       -1.64200000       1.25770000       1.43670000
H       -0.12570000       1.84240000       2.10500000
H       -2.36530000       3.34780000       0.71280000
H       -1.39720000       3.83450000       2.11050000
H        1.06510000       5.29900000       0.08670000
H        1.01390000       4.21340000       1.49150000
H        1.19130000       3.34970000      -1.44520000
H        2.58710000       3.44470000      -0.34310000
