16
Properties=species:S:1:pos:R:3 gdb_98702=T pbc="F F F"
C       -0.14010000       1.56580000      -0.22940000
C        0.28180000       0.10030000      -0.17290000
C        0.27290000      -0.47470000       1.23000000
O        0.02870000       0.16610000       2.22140000
C        0.58610000      -1.95800000       1.32590000
O        1.01460000      -2.44200000       2.59070000
C       -0.26580000      -2.85720000       2.15150000
C       -1.42220000      -2.37500000       2.87760000
N       -2.38550000      -2.07170000       3.43830000
H        0.51910000       2.18220000       0.38640000
H       -0.10570000       1.93670000      -1.25690000
H       -1.15600000       1.69310000       0.15260000
H       -0.36500000      -0.53140000      -0.79960000
H        1.29340000      -0.04150000      -0.58120000
H        1.08090000      -2.41260000       0.46720000
H       -0.34100000      -3.90180000       1.85210000
