21
Properties=species:S:1:pos:R:3 gdb_120710=T pbc="F F F"
C        0.05730000       1.33870000      -0.15560000
O        0.17150000      -0.06210000      -0.09860000
C        0.45990000      -0.52950000       1.20630000
C        0.56200000      -2.03170000       1.13270000
C        1.84550000      -2.70770000       0.79520000
C        1.28570000      -2.85790000       2.20170000
C        2.00750000      -2.20720000       3.33730000
C        1.81700000      -2.85750000       4.69570000
O        2.71100000      -1.22720000       3.19510000
H        0.98770000       1.83890000       0.15700000
H       -0.15770000       1.60830000      -1.19270000
H       -0.75970000       1.71100000       0.48400000
H        1.39470000      -0.09570000       1.58360000
H       -0.34700000      -0.23360000       1.90010000
H       -0.34300000      -2.50300000       0.75960000
H        1.83570000      -3.58100000       0.15350000
H        2.72770000      -2.08060000       0.72180000
H        0.81010000      -3.80180000       2.44660000
H        2.16920000      -3.89530000       4.66940000
H        2.36720000      -2.30210000       5.45580000
H        0.75270000      -2.89140000       4.95550000
