16
Properties=species:S:1:pos:R:3 gdb_22857=T pbc="F F F"
C       -0.04320000       1.47380000       0.11320000
C       -0.01730000      -0.01620000       0.03500000
C       -0.00820000      -0.80210000      -1.06060000
N        0.08870000      -2.15760000      -0.72860000
C        0.04250000      -2.32140000       0.66050000
N        0.01450000      -3.40090000       1.33860000
C        0.03010000      -0.91300000       1.18920000
N        0.06190000      -0.46020000       2.39440000
O        0.10260000      -1.44220000       3.36070000
H        0.84550000       1.86120000       0.62440000
H       -0.08610000       1.91930000      -0.88460000
H       -0.90920000       1.82520000       0.68520000
H       -0.02990000      -0.50750000      -2.10050000
H       -0.15430000      -2.90150000      -1.36060000
H        0.02920000      -4.21650000       0.72020000
H        0.13080000      -0.92650000       4.17530000
