17
Properties=species:S:1:pos:R:3 gdb_55565=T pbc="F F F"
C        0.05320000       1.42430000       0.03350000
C       -0.48760000       0.05650000       0.41730000
O       -0.92340000      -0.19460000       1.52260000
N       -0.43200000      -0.86000000      -0.61480000
C       -0.82650000      -2.20540000      -0.66390000
N       -0.64700000      -2.79670000      -1.77360000
C       -1.42070000      -2.80070000       0.60930000
C       -1.79540000      -4.19850000       0.45130000
C       -2.10350000      -5.35230000       0.31740000
H        1.10110000       1.35640000      -0.27700000
H       -0.51460000       1.84820000      -0.80130000
H       -0.02600000       2.08390000       0.89650000
H       -0.05150000      -0.55350000      -1.49980000
H       -0.96230000      -3.76440000      -1.71080000
H       -0.70430000      -2.67870000       1.42850000
H       -2.28160000      -2.19810000       0.91710000
H       -2.38090000      -6.37240000       0.21510000
