18
Properties=species:S:1:pos:R:3 gdb_73117=T pbc="F F F"
O       -0.07260000       1.38240000      -0.12000000
C        0.02830000      -0.01820000       0.00160000
C        0.37680000      -0.81320000      -1.29280000
C       -0.88540000      -1.69750000      -1.07770000
C       -1.36450000      -0.71160000       0.03720000
N       -1.50970000      -1.20770000       1.37950000
C       -0.37380000      -1.16020000       2.14730000
O       -0.25810000      -1.58540000       3.27410000
C        0.71390000      -0.47100000       1.30470000
H        0.81780000       1.75050000      -0.12340000
H        0.28720000      -0.16470000      -2.16720000
H        1.34330000      -1.32240000      -1.32070000
H       -1.54690000      -1.81060000      -1.93840000
H       -0.66160000      -2.68700000      -0.67250000
H       -2.18730000      -0.05940000      -0.26270000
H       -2.32840000      -1.68500000       1.72290000
H        1.53350000      -1.17780000       1.14480000
H        1.11130000       0.37840000       1.86650000
