15
Properties=species:S:1:pos:R:3 gdb_24367=T pbc="F F F"
C        0.14130000       1.43450000       0.33190000
N        1.07470000       2.14720000      -0.55580000
C        2.16840000       1.41060000      -0.94980000
C        2.12710000       0.04780000      -1.01530000
O        3.32200000      -0.36870000      -1.55330000
C        4.00000000       0.77920000      -1.76240000
N        3.37250000       1.87230000      -1.43100000
C        0.94850000      -0.70090000      -0.70140000
C       -0.04550000      -0.01010000      -0.11170000
H        0.48750000       1.45000000       1.38620000
H       -0.81740000       1.96250000       0.31100000
H        1.26400000       3.10750000      -0.30980000
H        4.99460000       0.68800000      -2.16870000
H        0.85000000      -1.74550000      -0.97330000
H       -0.98780000      -0.48540000       0.13360000
