12
Properties=species:S:1:pos:R:3 gdb_9158=T pbc="F F F"
C       -0.04170000       1.36350000       0.05990000
O        0.01430000      -0.06930000      -0.01120000
C        0.62930000      -0.55810000      -1.10160000
O        1.11300000       0.11260000      -1.98010000
C        0.63710000      -2.00160000      -1.08650000
C        0.68970000      -3.20920000      -1.15660000
C        0.73980000      -4.56470000      -1.21900000
C        0.78520000      -5.76990000      -1.27630000
H        0.96580000       1.78650000       0.07210000
H       -0.58470000       1.76920000      -0.79720000
H       -0.56480000       1.58920000       0.98850000
H        0.82430000      -6.83040000      -1.32490000
