20
Properties=species:S:1:pos:R:3 gdb_69779=T pbc="F F F"
C        0.00880000       1.53260000       0.02160000
C       -0.01620000       0.02570000       0.09320000
C       -1.33350000      -0.69710000      -0.22870000
C       -1.33840000      -1.99360000       0.58360000
C       -2.63740000      -2.66490000       0.93750000
O       -0.25290000      -2.88310000       0.24450000
C       -0.10660000      -2.02830000       1.39360000
C        0.71820000      -0.78590000       1.11670000
N        1.24280000      -0.65030000      -0.24960000
H        0.99730000       1.90640000       0.29930000
H       -0.20430000       1.87920000      -0.99650000
H       -0.73740000       1.97620000       0.69030000
H       -2.18010000      -0.07440000       0.08360000
H       -1.45530000      -0.89050000      -1.30100000
H       -3.17620000      -2.97060000       0.03370000
H       -2.45260000      -3.55770000       1.53990000
H       -3.28620000      -1.98670000       1.50150000
H       -0.02830000      -2.54150000       2.34800000
H        1.31860000      -0.36230000       1.91550000
H        1.05880000      -1.52420000      -0.74140000
