17
Properties=species:S:1:pos:R:3 gdb_29315=T pbc="F F F"
C       -0.04600000       1.52700000       0.00400000
C       -0.01440000       0.03000000       0.00110000
C       -0.01030000      -0.80850000      -1.09720000
N        0.00600000      -2.10040000      -0.67090000
C        0.02220000      -2.13330000       0.71950000
C        0.05080000      -3.31840000       1.46730000
C        0.08800000      -4.32720000       2.13170000
C        0.00330000      -0.80880000       1.15150000
N       -0.06800000      -0.37480000       2.47780000
H        0.85880000       1.96080000       0.45100000
H       -0.12290000       1.92160000      -1.01310000
H       -0.89910000       1.91100000       0.57630000
H       -0.02170000      -0.56700000      -2.14870000
H        0.00810000      -2.91790000      -1.25340000
H        0.10100000      -5.21450000       2.71360000
H        0.17470000      -1.10280000       3.13810000
H        0.48260000       0.45480000       2.65820000
