21
Properties=species:S:1:pos:R:3 gdb_73539=T pbc="F F F"
C       -0.14290000       1.55210000      -0.10940000
C       -0.03300000       0.02900000      -0.03840000
C       -1.41120000      -0.58290000       0.25510000
O       -1.41280000      -0.86970000       1.68070000
C       -0.10840000      -0.71360000       2.27920000
C        0.79080000      -0.68440000       1.07710000
C        2.09400000      -0.13050000       0.43430000
C        1.19530000      -0.66090000      -0.75290000
C        0.95590000      -1.91240000       0.12020000
H        0.81520000       2.06320000      -0.21780000
H       -0.75370000       1.82990000      -0.97630000
H       -0.64470000       1.95640000       0.77730000
H       -2.22090000       0.12790000       0.06120000
H       -1.63970000      -1.50290000      -0.29260000
H       -0.06330000       0.21760000       2.86290000
H        0.05370000      -1.55920000       2.95580000
H        2.28460000       0.93920000       0.50220000
H        3.00700000      -0.70080000       0.62200000
H        1.45180000      -0.63300000      -1.81420000
H        1.83120000      -2.53810000       0.31100000
H        0.08110000      -2.52500000      -0.08900000
