22
Properties=species:S:1:pos:R:3 gdb_9674=T pbc="F F F"
C       -0.26560000       1.25830000      -0.10280000
C        0.31400000      -0.16200000      -0.08400000
C        0.86320000      -0.58830000       1.26950000
C        2.12070000       0.12350000       1.73140000
C       -0.14990000      -0.99020000       2.33360000
C        0.70020000      -2.03910000       1.68860000
O        0.04210000      -2.95580000       0.87080000
C        0.91800000      -3.63430000      -0.00790000
H        0.49360000       2.01170000       0.13060000
H       -0.67520000       1.49950000      -1.08880000
H       -1.07220000       1.36200000       0.63060000
H       -0.45840000      -0.87540000      -0.38800000
H        1.11440000      -0.23440000      -0.83360000
H        1.94450000       1.19280000       1.89410000
H        2.48860000      -0.29090000       2.67590000
H        2.92370000       0.02800000       0.99040000
H        0.03460000      -0.73190000       3.37120000
H       -1.19640000      -0.98780000       2.04630000
H        1.51080000      -2.47850000       2.27480000
H        0.31540000      -4.34500000      -0.57850000
H        1.41680000      -2.94540000      -0.70380000
H        1.69180000      -4.18840000       0.54520000
