16
Properties=species:S:1:pos:R:3 gdb_34591=T pbc="F F F"
N        0.15450000      -1.08000000       0.22790000
C        0.03250000       0.06500000       0.13180000
C       -0.06240000       1.49620000       0.02320000
N       -1.16260000       2.13630000       0.15430000
C       -0.81940000       3.55560000      -0.03490000
C        0.71750000       3.61620000      -0.07640000
C        1.49840000       4.72840000      -0.70030000
C        1.54290000       4.51400000       0.80320000
N        1.08340000       2.21970000      -0.28350000
H       -1.26210000       3.90060000      -0.97870000
H       -1.25210000       4.15990000       0.76890000
H        2.38180000       4.46930000      -1.27400000
H        0.94970000       5.58200000      -1.08600000
H        1.02090000       5.21670000       1.44530000
H        2.46050000       4.11940000       1.22940000
H        1.96520000       1.88670000       0.08240000
