21
Properties=species:S:1:pos:R:3 gdb_82223=T pbc="F F F"
C       -0.08200000       1.57730000       0.02560000
C        0.06130000       0.05160000       0.01850000
C        0.74860000      -0.51090000      -1.23520000
C        2.13540000      -0.11880000      -1.69060000
C        1.91800000      -1.44330000      -0.99720000
C        2.21580000      -1.62420000       0.48190000
C        2.28350000      -0.30320000       1.27600000
C        0.75410000      -0.48490000       1.28710000
O        0.94360000      -1.92160000       1.15000000
H        0.89320000       2.07480000       0.01210000
H       -0.63760000       1.92070000      -0.85260000
H       -0.62000000       1.91980000       0.91690000
H       -0.94550000      -0.38520000       0.03670000
H        0.06390000      -0.77810000      -2.03400000
H        2.32460000      -0.14550000      -2.75880000
H        2.67490000       0.66860000      -1.17900000
H        1.98880000      -2.34550000      -1.59620000
H        2.96730000      -2.39230000       0.67840000
H        2.70810000      -0.46930000       2.26730000
H        2.72610000       0.58800000       0.83130000
H        0.19710000      -0.22590000       2.19280000
