19
Properties=species:S:1:pos:R:3 gdb_58706=T pbc="F F F"
C       -0.02180000       1.55470000       0.18420000
C       -0.04820000       0.03290000       0.03650000
O        0.60460000      -0.60130000       1.12330000
C       -1.48680000      -0.52150000      -0.07600000
C       -1.62120000      -2.07090000       0.00100000
C       -2.42520000      -1.80500000       1.28410000
O       -2.14680000      -0.38420000       1.22420000
C       -2.24610000       0.09730000      -1.15440000
C       -2.86330000       0.58510000      -2.06390000
H        1.00720000       1.88610000       0.34330000
H       -0.42210000       2.04850000      -0.70440000
H       -0.62440000       1.86190000       1.04570000
H        0.49990000      -0.27060000      -0.86310000
H        0.05560000      -0.41370000       1.89620000
H       -2.15950000      -2.53550000      -0.82360000
H       -0.66290000      -2.56140000       0.16590000
H       -3.50060000      -2.00190000       1.20820000
H       -2.04020000      -2.25330000       2.20590000
H       -3.41180000       1.02260000      -2.86150000
