14
Properties=species:S:1:pos:R:3 gdb_34904=T pbc="F F F"
N       -0.23120000      -1.21500000       0.02710000
C       -0.13190000      -0.06360000       0.03080000
C       -0.00350000       1.38500000       0.05310000
C       -0.22410000       2.10410000       1.38880000
C        0.83500000       1.78590000       2.35970000
N        1.12210000       2.80850000       1.33120000
C        1.42490000       2.05570000       0.05990000
C        2.60330000       1.20100000       0.09170000
N        3.53960000       0.52480000       0.12720000
H       -0.60330000       1.81280000      -0.75220000
H       -1.13550000       2.63130000       1.64390000
H        0.74240000       2.22050000       3.34890000
H        1.35270000       0.83070000       2.32530000
H        1.52130000       2.76930000      -0.76030000
