17
Properties=species:S:1:pos:R:3 gdb_100625=T pbc="F F F"
N       -0.09110000       1.38370000       0.16590000
C       -0.06610000      -0.06460000       0.01960000
C       -1.51270000      -0.57110000       0.10370000
O       -2.11350000      -0.15030000       1.30270000
C        0.64370000      -0.54960000      -1.29930000
C        1.98620000       0.01790000      -1.41900000
C        3.07860000       0.51220000      -1.48310000
C        0.68950000      -2.01780000      -1.37160000
N        0.70220000      -3.17240000      -1.40720000
H        0.84590000       1.75650000       0.27640000
H       -0.49510000       1.82520000      -0.65680000
H        0.49370000      -0.47340000       0.86680000
H       -2.06720000      -0.20700000      -0.78280000
H       -1.54080000      -1.66410000       0.08110000
H       -1.82250000       0.76420000       1.42740000
H        0.03350000      -0.20260000      -2.14610000
H        4.05210000       0.93170000      -1.55720000
