24
Properties=species:S:1:pos:R:3 gdb_100781=T pbc="F F F"
C        0.06870000       1.55670000      -0.24350000
C       -0.01700000       0.05020000       0.02000000
C       -1.44940000      -0.51590000       0.03610000
C       -2.10160000      -0.48400000      -1.35390000
C       -1.46300000      -1.94120000       0.63000000
O       -0.84600000      -1.98440000       1.92030000
C       -2.85620000      -2.54060000       0.69430000
C       -3.25330000      -3.65570000      -0.20370000
N       -3.02180000      -3.89970000       1.22660000
H        1.10670000       1.90070000      -0.19530000
H       -0.31900000       1.82980000      -1.23000000
H       -0.50080000       2.12140000       0.50370000
H        0.56680000      -0.48960000      -0.73910000
H        0.44850000      -0.17790000       0.98310000
H       -2.05310000       0.11180000       0.71280000
H       -3.13570000      -0.83740000      -1.32950000
H       -2.10960000       0.53000000      -1.76280000
H       -1.54910000      -1.11920000      -2.05680000
H       -0.82640000      -2.58910000       0.01130000
H       -1.43240000      -1.53720000       2.54130000
H       -3.63140000      -1.84970000       1.02930000
H       -4.28590000      -3.75720000      -0.52640000
H       -2.51960000      -4.00990000      -0.92370000
H       -2.10180000      -4.30870000       1.37700000
