17
Properties=species:S:1:pos:R:3 gdb_98249=T pbc="F F F"
C        0.12000000       1.27030000      -0.02890000
O       -0.01750000      -0.16060000      -0.02110000
C       -1.28860000      -0.61940000       0.03390000
O       -2.25190000       0.09880000       0.09210000
C       -1.33300000      -2.14300000       0.02280000
N       -2.60530000      -2.62200000       0.51420000
C       -1.01780000      -2.70640000      -1.40230000
N        0.17340000      -2.33150000      -1.92830000
O       -1.78480000      -3.47570000      -1.94460000
H        1.19210000       1.46470000      -0.04700000
H       -0.36460000       1.69790000      -0.90990000
H       -0.33320000       1.69820000       0.86760000
H       -0.50190000      -2.48170000       0.65960000
H       -3.27390000      -1.85820000       0.46010000
H       -2.92460000      -3.34030000      -0.13350000
H        0.73700000      -1.62670000      -1.48370000
H        0.42040000      -2.67020000      -2.84360000
