15
Properties=species:S:1:pos:R:3 gdb_94132=T pbc="F F F"
C       -0.40980000       1.41210000       0.02100000
C        0.06190000      -0.02530000      -0.08870000
C        1.40530000      -0.32350000      -0.78760000
O        1.90210000      -1.04740000       0.37120000
C        0.75310000      -0.70450000       1.15780000
C        1.09610000       0.20980000       2.26000000
N        1.36750000       0.96220000       3.09310000
C        0.06100000      -1.88960000       1.68340000
N       -0.51150000      -2.82140000       2.05450000
H        0.37450000       2.06730000       0.41010000
H       -0.70250000       1.77890000      -0.96800000
H       -1.28000000       1.49470000       0.67870000
H       -0.73960000      -0.67250000      -0.44860000
H        1.36830000      -0.96490000      -1.67180000
H        2.01970000       0.55970000      -0.99380000
