18
Properties=species:S:1:pos:R:3 gdb_47812=T pbc="F F F"
O        0.00700000       0.03760000       0.72110000
C       -0.01690000       1.11980000       0.18180000
C       -1.31220000       1.86470000      -0.17190000
O       -1.60050000       2.89450000       0.76030000
C       -0.82760000       4.07490000       0.64870000
C        0.62000000       3.89830000       1.13670000
C        1.48710000       3.15080000       0.14510000
C        2.32070000       1.96850000       0.56140000
N        1.12880000       1.79320000      -0.23220000
H       -1.24850000       2.26830000      -1.19420000
H       -2.13540000       1.15130000      -0.10790000
H       -0.83940000       4.44760000      -0.38950000
H       -1.33900000       4.81110000       1.27570000
H        1.06190000       4.88400000       1.32440000
H        0.58680000       3.36730000       2.09490000
H        1.85090000       3.75190000      -0.68810000
H        3.26380000       1.76700000       0.06060000
H        2.27130000       1.65180000       1.60050000
