17
Properties=species:S:1:pos:R:3 gdb_130127=T pbc="F F F"
N       -0.25750000       1.05110000      -0.76990000
C       -0.09470000      -0.18720000      -0.17910000
N       -0.70260000      -0.53180000       0.94760000
N       -0.29540000      -1.83420000       1.07870000
C        0.51460000      -2.18920000       0.06530000
N        0.66660000      -1.16100000      -0.75860000
C        1.11920000      -3.52010000      -0.07820000
C        1.30360000      -4.09700000      -1.46990000
C        2.50050000      -3.63750000      -0.69560000
H        0.53190000       1.32150000      -1.33790000
H       -0.53950000       1.77210000      -0.12190000
H       -0.60820000      -2.37750000       1.86490000
H        0.87290000      -4.21760000       0.71580000
H        1.13880000      -5.16120000      -1.59480000
H        0.96730000      -3.47440000      -2.29030000
H        2.96640000      -2.70730000      -0.99780000
H        3.17120000      -4.38080000      -0.27980000
