23
Properties=species:S:1:pos:R:3 gdb_111501=T pbc="F F F"
C        0.01500000       1.52200000       0.19840000
C        0.00570000      -0.00320000       0.04860000
C        0.62140000      -0.49970000      -1.26650000
C        0.86280000      -1.99840000      -1.32070000
O       -0.29050000      -2.78060000      -1.67500000
C        0.67930000      -2.47760000      -2.69180000
C        0.29880000      -1.30860000      -3.57720000
C       -0.16000000      -0.19130000      -2.59210000
C       -1.68930000      -0.16350000      -2.45520000
H        1.03700000       1.91470000       0.14640000
H       -0.56510000       2.01330000      -0.58940000
H       -0.40880000       1.82700000       1.16020000
H        0.57380000      -0.44230000       0.87930000
H       -1.01500000      -0.38780000       0.14760000
H        1.61880000      -0.04010000      -1.35550000
H        1.53900000      -2.47130000      -0.61090000
H        1.20970000      -3.33730000      -3.09450000
H        1.18630000      -1.00110000      -4.14450000
H       -0.47940000      -1.56220000      -4.30450000
H        0.15880000       0.78340000      -2.97480000
H       -2.06760000      -1.11740000      -2.08240000
H       -2.02790000       0.63100000      -1.78360000
H       -2.14490000       0.02470000      -3.43370000
