22
Properties=species:S:1:pos:R:3 gdb_42130=T pbc="F F F"
C       -0.05190000       1.53050000      -0.05240000
C        1.39650000       2.05190000       0.04410000
C        2.24560000       1.58690000       1.25750000
C        3.40450000       0.60070000       0.96630000
N        3.04170000      -0.81920000       1.02330000
C        2.32720000      -1.30730000       0.11140000
O        1.90630000      -0.63920000      -1.00130000
C        0.49210000      -0.71680000      -1.22230000
C       -0.27440000       0.01010000      -0.11870000
H       -0.62100000       1.91100000       0.80580000
H       -0.51080000       1.98790000      -0.93970000
H        1.93220000       1.81900000      -0.88010000
H        1.32180000       3.14550000       0.07850000
H        2.70590000       2.47350000       1.70740000
H        1.60980000       1.15770000       2.04180000
H        3.85740000       0.85290000      -0.00150000
H        4.17580000       0.74670000       1.72850000
H        2.00420000      -2.35230000       0.15760000
H        0.32500000      -0.26220000      -2.20300000
H        0.18250000      -1.77130000      -1.27740000
H       -0.00870000      -0.45140000       0.84070000
H       -1.34470000      -0.18470000      -0.26180000
