18
Properties=species:S:1:pos:R:3 gdb_75989=T pbc="F F F"
C       -1.09560000       1.10860000      -0.43070000
C       -0.13470000      -0.06660000      -0.33700000
C        0.84220000      -0.43340000      -1.52700000
C        1.03580000       0.63750000      -2.48980000
N        1.19210000       1.49710000      -3.24780000
C        2.02970000      -0.59900000      -0.49390000
C        3.40170000       0.00220000      -0.75680000
C        1.11750000       0.07540000       0.54480000
O        1.32700000       0.61940000       1.58870000
H       -0.58630000       2.01280000      -0.77410000
H       -1.91660000       0.89690000      -1.12170000
H       -1.51990000       1.31220000       0.55650000
H       -0.66910000      -0.97840000      -0.04350000
H        0.57870000      -1.34650000      -2.06350000
H        2.11710000      -1.66380000      -0.24550000
H        3.32610000       1.05040000      -1.05750000
H        4.00210000      -0.04650000       0.15600000
H        3.92950000      -0.54110000      -1.54580000
