14
Properties=species:S:1:pos:R:3 gdb_42381=T pbc="F F F"
N        0.42750000       0.37600000      -1.93000000
C       -0.01570000       0.07510000      -0.76380000
N       -1.38430000      -0.15180000      -0.66640000
C       -2.17860000      -0.49020000       0.41900000
N       -1.71610000      -0.65680000       1.59760000
C       -3.56890000      -0.62890000       0.06060000
C       -4.73480000      -0.75180000      -0.20780000
C        0.81920000      -0.03080000       0.39650000
C        1.66160000      -0.07470000       1.25360000
H        1.43390000       0.52120000      -1.89330000
H       -1.84970000      -0.04390000      -1.55590000
H       -2.47050000      -0.89930000       2.23570000
H       -5.76680000      -0.86220000      -0.43670000
H        2.36340000      -0.12760000       2.04930000
