17
Properties=species:S:1:pos:R:3 gdb_126045=T pbc="F F F"
C       -0.12560000       1.51970000      -0.19700000
C       -0.03100000       0.02990000       0.00860000
N        1.29320000      -0.59050000      -0.13790000
C        0.64830000      -0.60550000       1.18630000
C        1.32370000       0.15700000       2.25590000
C        2.51660000       0.81100000       2.21690000
O        2.78930000       1.37680000       3.40170000
N        1.75160000       1.09910000       4.28500000
C        0.89770000       0.38220000       3.59830000
H        0.71820000       2.03470000       0.26710000
H       -0.12530000       1.76010000      -1.26530000
H       -1.05090000       1.91140000       0.23870000
H       -0.87760000      -0.53560000      -0.38020000
H        1.22470000      -1.50360000      -0.57740000
H        0.20860000      -1.54480000       1.51910000
H        3.24910000       0.94100000       1.43710000
H       -0.00680000       0.04040000       4.08270000
