16
Properties=species:S:1:pos:R:3 gdb_15017=T pbc="F F F"
C       -0.20530000      -1.09460000       0.09690000
C       -0.05580000       0.09570000       0.04340000
C        0.10210000       1.55340000      -0.04110000
C        1.51980000       1.93690000      -0.05020000
C        2.67340000       2.26930000      -0.07370000
C       -0.63660000       2.12370000      -1.25640000
C       -2.11280000       2.39650000      -1.16760000
C       -1.13150000       3.54330000      -1.22590000
H       -0.32920000      -2.14780000       0.15040000
H       -0.35870000       1.99330000       0.85630000
H        3.69570000       2.55630000      -0.08840000
H       -0.25670000       1.75050000      -2.20150000
H       -2.72420000       2.18960000      -2.03850000
H       -2.60910000       2.20020000      -0.22270000
H       -0.96800000       4.11840000      -0.32020000
H       -1.06650000       4.12710000      -2.13700000
