19
Properties=species:S:1:pos:R:3 gdb_86295=T pbc="F F F"
C       -0.85920000       1.06990000      -0.04710000
C        0.10190000      -0.10370000      -0.09960000
C        1.47100000       0.07760000      -0.81380000
C        2.12290000      -0.75250000       0.31100000
O        3.31660000      -0.28860000       0.91120000
C        0.86810000      -0.48520000       1.21730000
O        1.08780000       0.60380000       2.07530000
C        0.33230000      -1.67570000       1.98010000
O        0.01600000      -2.71420000       1.45360000
H       -0.38870000       1.93010000       0.43610000
H       -1.16600000       1.36110000      -1.05750000
H       -1.76300000       0.81960000       0.51820000
H       -0.39190000      -1.00870000      -0.46520000
H        1.57370000      -0.28710000      -1.83800000
H        1.80040000       1.12140000      -0.76630000
H        2.19900000      -1.81600000       0.06250000
H        3.79110000       0.25280000       0.27340000
H        2.05120000       0.70230000       2.13030000
H        0.25890000      -1.51660000       3.07870000
