19
Properties=species:S:1:pos:R:3 gdb_114436=T pbc="F F F"
C       -0.00690000       1.36540000      -0.10770000
O       -0.01080000      -0.04250000       0.05390000
C       -1.27600000      -0.60720000       0.03310000
O       -1.88760000      -0.45410000      -1.26150000
C       -2.52050000      -1.67690000      -1.56620000
C       -1.69160000      -2.94000000      -1.69490000
C       -0.38060000      -2.75860000      -0.93010000
C       -1.20010000      -2.11930000       0.23830000
C       -2.50480000      -2.63340000      -0.42570000
H        1.02840000       1.69530000       0.00050000
H       -0.38170000       1.65410000      -1.09610000
H       -0.62170000       1.85600000       0.66200000
H       -1.92360000      -0.10830000       0.77820000
H       -3.39320000      -1.56220000      -2.19770000
H       -1.89280000      -3.67460000      -2.46700000
H        0.04320000      -3.71960000      -0.63070000
H        0.39630000      -2.13540000      -1.37900000
H       -0.95420000      -2.42000000       1.25480000
H       -3.35180000      -3.12640000       0.03220000
