16
Properties=species:S:1:pos:R:3 gdb_105861=T pbc="F F F"
C        0.04380000       1.35130000       0.19280000
O        0.03650000      -0.03560000      -0.14820000
C       -1.21410000      -0.58240000      -0.11780000
C       -1.86710000      -1.10210000       1.15490000
O       -3.14020000      -0.67250000       1.52110000
C       -1.62360000      -2.05030000       0.00650000
N       -2.60710000      -1.85550000      -1.06510000
C       -2.29990000      -0.48250000      -1.19440000
O       -2.74520000       0.37640000      -1.89710000
H        1.08020000       1.68430000       0.11530000
H       -0.58150000       1.92850000      -0.49710000
H       -0.31470000       1.50690000       1.21910000
H       -1.14210000      -1.18740000       1.96750000
H       -3.53530000      -1.34400000       2.08840000
H       -0.99520000      -2.93130000       0.03200000
H       -3.57110000      -2.15320000      -0.96090000
