13
Properties=species:S:1:pos:R:3 gdb_132070=T pbc="F F F"
N        0.01960000       1.41260000       0.15200000
C       -0.01290000       0.04120000       0.05280000
C       -1.13170000      -0.72630000       0.02280000
F       -2.33130000      -0.14180000       0.02660000
N       -1.14490000      -2.08590000      -0.00830000
C       -0.00870000      -2.66560000      -0.01820000
O        1.19180000      -2.04070000      -0.01140000
C        1.26550000      -0.65390000       0.00820000
N        2.37330000      -0.03510000      -0.01910000
H        0.90570000       1.81350000      -0.12250000
H       -0.80080000       1.90080000      -0.17090000
H        0.10090000      -3.74280000      -0.03510000
H        3.16530000      -0.67390000      -0.05870000
