17
Properties=species:S:1:pos:R:3 gdb_74090=T pbc="F F F"
C       -0.01570000       1.53400000       0.00700000
C        0.11030000       0.03300000      -0.00980000
N       -0.78300000      -0.82860000       0.81440000
C        0.68850000      -0.78450000       1.07400000
C        1.44370000      -1.94130000       0.41990000
O        2.09850000      -2.77200000       1.01450000
C        1.22110000      -1.80470000      -1.01880000
C        0.47800000      -0.69850000      -1.28270000
N        0.08590000      -0.20380000      -2.48810000
H        0.88020000       2.00970000      -0.40420000
H       -0.87720000       1.88090000      -0.57700000
H       -0.15120000       1.89450000       1.03110000
H       -1.23620000      -0.23800000       1.51450000
H        1.04940000      -0.36390000       2.00570000
H        1.56500000      -2.53330000      -1.74100000
H        0.17010000      -0.79840000      -3.29760000
H       -0.69190000       0.43500000      -2.51320000
