21
Properties=species:S:1:pos:R:3 gdb_93270=T pbc="F F F"
C       -0.33330000       1.50750000      -0.02500000
C        0.02840000       0.02680000       0.03580000
C        0.91840000      -0.47240000      -1.12980000
C        1.46790000      -1.83710000      -0.66400000
C        1.31670000      -1.81490000       0.85300000
O        1.49690000      -2.72600000       1.62370000
C        0.78300000      -0.44400000       1.29850000
C        1.97700000       0.44830000       1.69150000
O       -0.08350000      -0.59780000       2.40280000
H        0.55860000       2.14160000      -0.05790000
H       -0.92350000       1.72350000      -0.92180000
H       -0.92730000       1.79990000       0.84620000
H       -0.90270000      -0.55650000       0.02830000
H        0.35890000      -0.54160000      -2.06600000
H        1.73790000       0.23440000      -1.30160000
H        0.87920000      -2.67980000      -1.04340000
H        2.50580000      -2.03010000      -0.95160000
H        2.65740000       0.64220000       0.85590000
H        1.60640000       1.40470000       2.06830000
H        2.54540000      -0.03750000       2.49010000
H        0.21530000      -1.39700000       2.86180000
