14
Properties=species:S:1:pos:R:3 gdb_130193=T pbc="F F F"
N        0.01600000       1.38830000       0.15370000
C        0.01330000       0.01190000       0.02220000
N       -1.05000000      -0.74630000      -0.02920000
N       -0.57510000      -2.04840000      -0.00710000
C        0.78510000      -2.06470000      -0.04100000
N        1.78540000      -2.91190000      -0.07580000
C        2.88960000      -2.07480000      -0.02820000
C        2.56120000      -0.74230000       0.03550000
N        1.16650000      -0.74120000       0.02240000
H        0.65360000       1.85430000      -0.48090000
H       -0.92010000       1.76260000       0.06150000
H       -1.20210000      -2.79890000      -0.23120000
H        3.88730000      -2.48890000      -0.04040000
H        3.14680000       0.15650000       0.10730000
