18
Properties=species:S:1:pos:R:3 gdb_78070=T pbc="F F F"
C       -0.61830000       1.54410000       0.19790000
C       -0.12410000       0.11200000       0.15190000
C        0.83040000      -0.41700000      -0.96540000
O        1.56760000       0.50770000      -1.73770000
C        1.66840000      -1.01150000       0.15740000
C        2.16970000       0.04380000       1.06250000
C        2.76190000       1.36030000       0.63410000
O        2.27950000       2.45800000       0.73210000
N        0.78430000      -0.40620000       1.25000000
H        0.18290000       2.27250000       0.08870000
H       -1.36710000       1.70040000      -0.58820000
H       -1.10980000       1.72800000       1.15890000
H       -0.98820000      -0.55970000       0.19050000
H        0.35840000      -1.17490000      -1.60310000
H        0.95070000       1.05210000      -2.23850000
H        2.01910000      -2.03660000       0.20550000
H        2.79740000      -0.36310000       1.86070000
H        3.80890000       1.22420000       0.27960000
