20
Properties=species:S:1:pos:R:3 gdb_39636=T pbc="F F F"
C       -0.13830000       1.43650000      -0.02240000
C        1.40530000       1.56970000      -0.12710000
C        1.54090000       0.18960000       0.56380000
C        0.04130000      -0.08780000       0.20910000
C        2.55560000      -0.76910000       0.05010000
N        3.26190000      -0.64170000      -0.99900000
C        4.08130000      -1.85670000      -1.10790000
C        3.66280000      -2.72370000       0.10870000
O        2.68860000      -1.90730000       0.79330000
H       -0.53340000       1.93690000       0.86650000
H       -0.73110000       1.74620000      -0.88560000
H        1.76050000       1.51310000      -1.15790000
H        1.88070000       2.42090000       0.36490000
H        1.65760000       0.28040000       1.64780000
H       -0.57050000      -0.57080000       0.97350000
H       -0.04210000      -0.65390000      -0.72240000
H        3.88850000      -2.35600000      -2.06350000
H        5.14460000      -1.59340000      -1.09040000
H        3.18550000      -3.66750000      -0.17150000
H        4.48230000      -2.93540000       0.80120000
