15
Properties=species:S:1:pos:R:3 gdb_31415=T pbc="F F F"
C       -0.07920000       1.46810000       0.02640000
N       -0.05740000       0.02590000       0.15690000
C        0.60690000      -0.69300000       1.08140000
N        0.50420000      -1.99680000       1.03830000
C        1.16310000      -2.74170000       1.95750000
N        1.15980000      -4.00060000       2.04190000
O        1.95090000      -2.00420000       2.94200000
C        1.96210000      -0.68540000       2.86380000
N        1.34930000       0.04260000       2.00620000
H        0.54030000       1.89830000       0.81130000
H        0.31450000       1.77790000      -0.94830000
H       -1.10000000       1.85380000       0.12670000
H       -0.58320000      -0.53630000      -0.49540000
H        1.73560000      -4.31140000       2.82130000
H        2.57600000      -0.23030000       3.63920000
