20
Properties=species:S:1:pos:R:3 gdb_107216=T pbc="F F F"
O        0.12200000       1.36610000       0.19560000
C        0.02550000      -0.00830000      -0.15810000
C       -1.38700000      -0.53030000      -0.08460000
C       -1.88330000      -1.08170000       1.23580000
C       -1.68510000      -2.01450000       0.06570000
C       -2.89470000      -2.32310000      -0.79160000
N       -4.13990000      -1.64660000      -0.36220000
C       -3.34090000      -1.07510000      -1.46610000
C       -2.41950000       0.06980000      -1.05530000
H       -0.28110000       1.46280000       1.06520000
H        0.40690000      -0.06750000      -1.18450000
H        0.68230000      -0.63070000       0.47200000
H       -1.16090000      -1.14750000       2.04480000
H       -2.90340000      -0.88150000       1.53930000
H       -0.88780000      -2.74880000       0.09980000
H       -2.96640000      -3.29630000      -1.26500000
H       -4.94240000      -2.13890000      -0.74720000
H       -3.76860000      -1.07660000      -2.46420000
H       -2.97560000       0.90630000      -0.62100000
H       -1.89890000       0.45310000      -1.94010000
