19
Properties=species:S:1:pos:R:3 gdb_55088=T pbc="F F F"
C        0.34680000       1.53620000       0.04580000
C       -0.02270000       0.08510000       0.04980000
C       -1.43900000      -0.48480000      -0.14970000
C       -1.10170000      -1.64100000       0.84380000
C        0.31410000      -1.03290000       0.99620000
N        0.98480000      -0.91810000      -0.29300000
C       -1.90200000      -1.56850000       2.13860000
N       -1.97740000      -2.74680000       2.82420000
O       -2.40830000      -0.54270000       2.55290000
H        1.38410000       1.66640000       0.36500000
H        0.24820000       1.96240000      -0.95990000
H       -0.30470000       2.10330000       0.71820000
H       -2.21760000       0.15340000       0.27110000
H       -1.70020000      -0.77240000      -1.17360000
H       -1.10950000      -2.65970000       0.43790000
H        0.91840000      -1.04710000       1.89690000
H        0.66010000      -1.60430000      -0.97280000
H       -1.49950000      -3.57630000       2.51970000
H       -2.40470000      -2.74090000       3.73600000
