16
Properties=species:S:1:pos:R:3 gdb_38806=T pbc="F F F"
C        0.01620000       1.58760000       0.10230000
C        1.53910000       1.79790000       0.00560000
O        2.01870000       0.82550000       0.98640000
C        1.57310000      -0.16010000       0.02480000
C        1.97830000       0.79960000      -1.11510000
N        1.29140000       0.72660000      -2.38440000
C        0.18620000       0.10350000      -2.37500000
O       -0.47740000      -0.40160000      -1.30840000
C        0.03630000       0.03830000      -0.03360000
H       -0.36200000       1.92130000       1.07010000
H       -0.55960000       2.06390000      -0.69420000
H        1.95370000       2.79780000       0.12510000
H        1.97080000      -1.16340000       0.16420000
H        3.05850000       0.83080000      -1.25790000
H       -0.36390000      -0.08910000      -3.29370000
H       -0.53730000      -0.50110000       0.71730000
