16
Properties=species:S:1:pos:R:3 gdb_57767=T pbc="F F F"
C        0.06780000       1.51910000      -0.12910000
C        0.01700000       0.00700000       0.13130000
O        0.65770000      -0.34770000       1.35040000
C       -1.36220000      -0.49700000       0.08030000
C       -2.50120000      -0.88810000       0.07720000
C       -3.86790000      -1.41570000       0.07470000
O       -3.94480000      -2.79520000      -0.22920000
C       -4.52890000      -1.11230000       1.37020000
N       -5.04570000      -0.89630000       2.38030000
H        1.10620000       1.85630000      -0.08310000
H       -0.34470000       1.76090000      -1.11270000
H       -0.51310000       2.05840000       0.62600000
H        0.60030000      -0.50480000      -0.64350000
H        0.13970000       0.02450000       2.07340000
H       -4.45160000      -0.91820000      -0.70980000
H       -3.34630000      -3.26340000       0.36560000
