19
Properties=species:S:1:pos:R:3 gdb_62179=T pbc="F F F"
C        0.13600000       1.59420000      -0.03810000
C        0.01110000       0.05750000      -0.04600000
C       -1.45020000      -0.45050000       0.01690000
C       -2.16250000      -0.09850000       1.32640000
C       -3.57740000      -0.70990000       1.37820000
C       -4.28140000      -0.37880000       2.61510000
N       -4.82020000      -0.10480000       3.59980000
C        0.66740000      -0.49440000      -1.23700000
N        1.17140000      -0.92680000      -2.18290000
H        1.18190000       1.89690000      -0.12600000
H       -0.41670000       2.03110000      -0.87490000
H       -0.25900000       2.00600000       0.89340000
H        0.54990000      -0.34110000       0.82400000
H       -2.00410000      -0.03960000      -0.83610000
H       -1.44450000      -1.53880000      -0.11230000
H       -1.58360000      -0.46720000       2.18100000
H       -2.24510000       0.98580000       1.44660000
H       -4.17600000      -0.35450000       0.53120000
H       -3.52460000      -1.80120000       1.28830000
