17
Properties=species:S:1:pos:R:3 gdb_48483=T pbc="F F F"
O       -0.11640000       0.49280000       0.78300000
C        0.51970000       0.87920000      -0.15920000
C        1.48020000       2.09500000      -0.14090000
C        1.52780000       2.80070000       1.23970000
C        3.01210000       2.71430000       1.63700000
C        3.46630000       1.46020000       0.89270000
O        2.78150000       1.51030000      -0.36170000
C        1.14490000       2.96660000      -1.26020000
C        0.80330000       3.64800000      -2.18970000
H        0.52480000       0.34900000      -1.13300000
H        1.15820000       3.82400000       1.17960000
H        0.89210000       2.24190000       1.93100000
H        3.56290000       3.58550000       1.27010000
H        3.15800000       2.64480000       2.71750000
H        4.53610000       1.42700000       0.67300000
H        3.19330000       0.54960000       1.44690000
H        0.52100000       4.26600000      -3.00650000
