15
Properties=species:S:1:pos:R:3 gdb_24103=T pbc="F F F"
N       -0.02800000      -1.14340000      -0.00510000
C        0.00850000       0.01020000       0.00170000
C       -0.00030000       1.47450000       0.01200000
O        1.32780000       1.94110000       0.00050000
C        1.44780000       3.30220000       0.00660000
C        0.45790000       4.26430000       0.02460000
N        1.10160000       5.48500000       0.02350000
C        2.45570000       5.30350000       0.00530000
C        2.71040000       3.95190000      -0.00560000
H       -0.55540000       1.83580000      -0.86770000
H       -0.53580000       1.82340000       0.90860000
H       -0.61580000       4.19860000       0.03780000
H        0.63630000       6.37440000       0.03440000
H        3.13090000       6.14360000       0.00160000
H        3.67370000       3.46920000      -0.02050000
