15
Properties=species:S:1:pos:R:3 gdb_26047=T pbc="F F F"
N       -0.89380000       0.59270000       0.13890000
C        0.16690000      -0.38020000      -0.15970000
C        1.09370000       0.06410000      -1.22200000
N        1.74110000       0.47130000      -2.08780000
C        0.90700000      -0.72040000       1.10810000
N        2.12870000      -1.18620000       1.21320000
C        2.31840000      -1.40040000       2.55910000
C        1.19510000      -1.05620000       3.26530000
N        0.29410000      -0.62280000       2.32010000
H       -0.47940000       1.50670000       0.30290000
H       -1.50590000       0.69150000      -0.66520000
H       -0.33110000      -1.28600000      -0.53270000
H        3.25260000      -1.78360000       2.93980000
H        0.95920000      -1.06880000       4.31610000
H       -0.64020000      -0.27180000       2.45620000
