17
Properties=species:S:1:pos:R:3 gdb_24379=T pbc="F F F"
C       -0.02620000       1.50700000      -0.14060000
C        1.35860000       2.05940000       0.11360000
C        2.43940000       1.32380000       0.37750000
C        2.47110000      -0.18260000       0.46860000
C        1.11340000      -0.75110000       0.22040000
C        0.01730000       0.02150000      -0.04870000
N       -1.02140000      -0.87090000      -0.21310000
C       -0.50210000      -2.12350000      -0.03620000
N        0.78330000      -2.08910000       0.22700000
H       -0.73570000       1.93980000       0.58290000
H       -0.38390000       1.84440000      -1.12670000
H        1.44750000       3.14180000       0.07120000
H        3.38740000       1.82960000       0.54440000
H        3.20210000      -0.58440000      -0.24870000
H        2.85070000      -0.48880000       1.45470000
H       -1.97950000      -0.64600000      -0.42320000
H       -1.11150000      -3.01180000      -0.11230000
