16
Properties=species:S:1:pos:R:3 gdb_51022=T pbc="F F F"
N       -0.12970000       1.31290000       0.11110000
C       -0.03590000       0.06020000       0.04480000
O       -1.16800000      -0.67860000      -0.10880000
C       -1.03850000      -2.08810000      -0.03160000
C       -0.83890000      -2.64860000       1.41360000
N       -2.29420000      -2.88510000       1.50050000
C       -2.45290000      -2.72610000       0.03870000
C       -0.13270000      -2.60760000      -1.05910000
N        0.58780000      -3.03150000      -1.85740000
H        0.79450000       1.73000000       0.20210000
H        0.88290000      -0.53730000       0.07990000
H       -0.21010000      -3.54740000       1.42150000
H       -0.44920000      -1.92500000       2.13690000
H       -2.56020000      -3.79090000       1.86640000
H       -3.25370000      -2.04660000      -0.26480000
H       -2.51570000      -3.65720000      -0.53640000
