18
Properties=species:S:1:pos:R:3 gdb_128839=T pbc="F F F"
C       -0.12910000       1.38830000       0.00930000
O        0.01980000      -0.01130000      -0.02620000
C        0.65130000      -0.52640000       1.12150000
C        0.75390000      -2.04570000       0.96550000
C        1.39140000      -2.70310000       2.15040000
C        2.63910000      -3.23040000       2.27520000
O        2.83970000      -3.71350000       3.51010000
N        1.68840000      -3.51070000       4.26330000
C        0.84850000      -2.91710000       3.45350000
H        0.84330000       1.90130000       0.07650000
H       -0.62330000       1.68820000      -0.91780000
H       -0.74620000       1.71210000       0.86240000
H        1.65710000      -0.09040000       1.24670000
H        0.07740000      -0.27290000       2.02980000
H       -0.25470000      -2.44190000       0.80300000
H        1.32650000      -2.26380000       0.05870000
H        3.46570000      -3.33550000       1.58910000
H       -0.13590000      -2.65890000       3.81990000
