20
Properties=species:S:1:pos:R:3 gdb_75210=T pbc="F F F"
C       -0.40770000       1.45430000       0.11110000
C        0.00920000       0.02110000      -0.04430000
N       -0.13940000      -0.60690000      -1.13370000
C        0.21000000      -2.01500000      -1.23580000
C        0.99740000      -2.61080000      -0.07540000
C        0.83500000      -4.10170000       0.12760000
C        2.33510000      -1.97250000       0.25940000
C        1.12670000      -1.72150000       1.12260000
O        0.53960000      -0.44160000       1.12660000
H        0.45300000       2.07420000       0.38190000
H       -0.84160000       1.81060000      -0.82200000
H       -1.14010000       1.54900000       0.91940000
H       -0.73020000      -2.57470000      -1.34070000
H        0.74900000      -2.16440000      -2.18170000
H        1.18470000      -4.65640000      -0.75130000
H        1.41200000      -4.45330000       0.98910000
H       -0.21510000      -4.36760000       0.29470000
H        3.12780000      -2.59850000       0.65530000
H        2.67320000      -1.14950000      -0.36250000
H        1.08420000      -2.14170000       2.12140000
