11
Properties=species:S:1:pos:R:3 gdb_21511=T pbc="F F F"
N       -0.08500000       1.33140000       0.00870000
C        0.10180000      -0.00070000       0.00140000
O        1.14220000      -0.60800000      -0.00950000
N       -1.14810000      -0.72270000       0.01040000
C       -1.34320000      -2.05910000       0.00810000
N       -2.63140000      -2.29910000       0.01780000
N       -3.23690000      -1.07230000       0.02760000
N       -2.36760000      -0.12690000       0.02330000
H        0.72750000       1.92320000       0.00300000
H       -1.01320000       1.72290000       0.01750000
H       -0.54010000      -2.77580000      -0.00130000
