16
Properties=species:S:1:pos:R:3 gdb_27909=T pbc="F F F"
N        0.00100000       1.40730000       0.22570000
C        0.00370000       0.03170000       0.06930000
C       -1.20040000      -0.68220000       0.02810000
C       -1.11730000      -2.06470000      -0.07180000
O       -2.26560000      -2.77860000      -0.11110000
N        0.01360000      -2.76290000      -0.13150000
C        1.16120000      -2.06780000      -0.09900000
N        2.31780000      -2.81920000      -0.22400000
C        1.20940000      -0.67630000       0.00120000
H        0.83280000       1.88770000      -0.08100000
H       -0.84650000       1.87860000      -0.05080000
H       -2.16390000      -0.19170000       0.08030000
H       -1.99070000      -3.70270000      -0.18510000
H        2.18350000      -3.79670000      -0.01200000
H        3.15200000      -2.42510000       0.18220000
H        2.16080000      -0.15580000       0.02190000
