19
Properties=species:S:1:pos:R:3 gdb_122476=T pbc="F F F"
C       -1.27300000       1.16490000      -0.12450000
O       -1.01380000      -0.21920000      -0.11080000
C        0.15420000      -0.55430000       0.60660000
C        0.31280000      -2.06600000       0.60220000
N       -0.72470000      -2.68550000       1.42610000
C       -1.98480000      -2.99590000       0.78350000
C       -1.05310000      -4.09970000       1.19260000
C       -0.37740000      -4.86230000       0.17080000
N        0.18340000      -5.48720000      -0.62540000
H       -2.18640000       1.32140000      -0.70310000
H       -1.42180000       1.56220000       0.89170000
H       -0.45240000       1.72800000      -0.59620000
H        1.04130000      -0.09360000       0.14020000
H        0.09160000      -0.18870000       1.64420000
H        0.30140000      -2.42480000      -0.43830000
H        1.28550000      -2.32400000       1.03400000
H       -2.88030000      -2.82150000       1.37260000
H       -2.07910000      -2.79710000      -0.28050000
H       -1.25850000      -4.66860000       2.09500000
