22
Properties=species:S:1:pos:R:3 gdb_57847=T pbc="F F F"
C       -0.89030000       1.04820000       0.55450000
N       -0.67530000      -0.37280000       0.31460000
C       -0.81390000      -1.17830000       1.51150000
C       -0.35110000      -0.76230000      -0.97080000
O       -0.26160000       0.05640000      -1.86420000
C       -0.09810000      -2.27110000      -1.29330000
C        1.13360000      -2.82090000      -0.54800000
C       -1.36890000      -3.12030000      -1.09570000
O        0.20580000      -2.26490000      -2.68480000
H       -0.16900000       1.42680000       1.29050000
H       -0.76780000       1.58200000      -0.38480000
H       -1.89990000       1.22060000       0.94920000
H       -1.80880000      -1.03180000       1.95370000
H       -0.68940000      -2.23710000       1.31740000
H       -0.07180000      -0.88100000       2.26580000
H        1.03080000      -2.84970000       0.53800000
H        1.32930000      -3.84660000      -0.88360000
H        2.00630000      -2.21170000      -0.79730000
H       -2.17220000      -2.71410000      -1.71570000
H       -1.17150000      -4.14740000      -1.42590000
H       -1.72200000      -3.17370000      -0.06460000
H        0.36930000      -3.18110000      -2.93360000
