16
Properties=species:S:1:pos:R:3 gdb_27792=T pbc="F F F"
C        0.01650000       1.52570000      -0.01460000
C       -0.06200000       0.02870000       0.01400000
C       -1.22000000      -0.68270000      -0.04640000
C       -1.10940000      -2.11340000      -0.00590000
N       -2.24970000      -2.86000000      -0.02570000
N        0.02840000      -2.76850000       0.07970000
C        1.20920000      -2.07810000       0.14870000
O        2.31560000      -2.56970000       0.23370000
N        1.10520000      -0.65610000       0.10910000
H        0.61610000       1.86680000      -0.86590000
H       -0.97860000       1.96540000      -0.09410000
H        0.49240000       1.90640000       0.89600000
H       -2.17860000      -0.18630000      -0.11200000
H       -3.11160000      -2.45200000      -0.34290000
H       -2.12760000      -3.85210000      -0.15340000
H        1.98990000      -0.17180000       0.15550000
