20
Properties=species:S:1:pos:R:3 gdb_126683=T pbc="F F F"
C       -0.26900000       1.58650000       0.07620000
C       -0.01440000       0.07470000      -0.01410000
N       -1.20920000      -0.76280000      -0.01150000
C       -1.99900000      -0.76260000      -1.22540000
C       -1.92340000      -0.86220000       1.18180000
C       -3.27460000      -1.13280000       1.34660000
N       -3.48740000      -1.19540000       2.69230000
N       -2.38580000      -0.96980000       3.41540000
C       -1.42950000      -0.76590000       2.51180000
H        0.67920000       2.13410000       0.08240000
H       -0.85580000       1.94280000      -0.77650000
H       -0.81330000       1.83580000       0.99160000
H        0.54040000      -0.15460000      -0.93110000
H        0.62660000      -0.24270000       0.81510000
H       -2.60420000      -1.67490000      -1.27380000
H       -2.68370000       0.09910000      -1.31160000
H       -1.33190000      -0.75810000      -2.09170000
H       -4.07160000      -1.28210000       0.63850000
H       -4.35400000      -1.38140000       3.16570000
H       -0.42370000      -0.55720000       2.84200000
