18
Properties=species:S:1:pos:R:3 gdb_12861=T pbc="F F F"
O       -0.02340000       1.39870000      -0.14160000
C        0.01650000      -0.00370000      -0.00150000
C        0.36730000      -0.83040000      -1.27030000
C       -0.92560000      -1.66860000      -1.06610000
C       -1.37930000      -0.70040000       0.06580000
C       -1.43000000      -1.30090000       1.46570000
O       -0.06640000      -1.57390000       1.78910000
C        0.68360000      -0.46480000       1.31440000
H        0.87670000       1.71450000      -0.27810000
H        0.32700000      -0.20210000      -2.16340000
H        1.31610000      -1.37430000      -1.25620000
H       -1.58990000      -1.72900000      -1.92990000
H       -0.73280000      -2.67970000      -0.69980000
H       -2.22300000      -0.05580000      -0.18150000
H       -1.86390000      -0.58630000       2.18410000
H       -1.98030000      -2.24390000       1.53210000
H        1.72360000      -0.78840000       1.20630000
H        0.63920000       0.37820000       2.02310000
