20
Properties=species:S:1:pos:R:3 gdb_114433=T pbc="F F F"
C        0.09160000       1.37840000       0.07160000
O       -0.19720000       0.01590000      -0.14460000
C        0.56500000      -0.57230000      -1.17340000
C        2.05700000      -0.84670000      -0.82380000
C        2.28630000      -2.22910000      -1.41170000
C        1.47330000      -3.38060000      -0.94330000
C        0.17950000      -2.93480000      -0.27650000
C        0.02750000      -1.96790000      -1.47790000
N        1.13670000      -2.67950000      -2.24560000
H        1.12760000       1.53570000       0.40680000
H       -0.06980000       1.97610000      -0.83930000
H       -0.58600000       1.73410000       0.85160000
H        0.50720000       0.04760000      -2.08310000
H        2.73340000      -0.11180000      -1.26770000
H        2.20000000      -0.82100000       0.26170000
H        3.25280000      -2.46370000      -1.84680000
H        1.87250000      -4.39100000      -0.93790000
H       -0.57400000      -3.72440000      -0.29640000
H        0.22130000      -2.50130000       0.72630000
H       -0.92700000      -1.97330000      -2.00230000
