16
Properties=species:S:1:pos:R:3 gdb_9048=T pbc="F F F"
C        1.00270000       1.24120000      -0.65430000
C        0.16690000       0.03410000      -0.17810000
N        0.36650000      -1.22830000      -0.88970000
C       -0.32440000      -1.38570000      -2.16780000
C        0.19410000      -0.62470000      -3.31420000
C        0.64190000      -0.03040000      -4.25920000
C        0.41500000      -0.20100000       1.25890000
N        0.63360000      -0.36270000       2.38170000
H        2.07100000       1.02350000      -0.56190000
H        0.77890000       1.45890000      -1.69940000
H        0.78200000       2.12420000      -0.04760000
H       -0.89730000       0.28430000      -0.27380000
H        1.35530000      -1.43320000      -0.98330000
H       -0.30320000      -2.45200000      -2.42340000
H       -1.38130000      -1.13720000      -2.01100000
H        1.03280000       0.49910000      -5.09310000
