18
Properties=species:S:1:pos:R:3 gdb_17333=T pbc="F F F"
C       -0.01080000       1.54780000       0.02280000
C        0.10480000       0.04620000      -0.02260000
N       -0.59010000      -0.79110000       0.97830000
C        0.88780000      -0.76600000       0.95330000
C        1.54120000      -1.95070000       0.24050000
C        1.12500000      -1.82190000      -1.22700000
N       -0.31840000      -1.98770000      -1.48030000
C        0.24860000      -0.62780000      -1.38080000
H        0.76990000       2.02520000      -0.58050000
H       -0.98020000       1.88350000      -0.36400000
H        0.08860000       1.91900000       1.04820000
H       -0.91250000      -0.18930000       1.73470000
H        1.40930000      -0.30310000       1.78700000
H        2.63120000      -1.87150000       0.32020000
H        1.23670000      -2.90950000       0.67070000
H        1.82570000      -2.12480000      -1.99970000
H       -0.45430000      -2.21250000      -2.46400000
H        0.27520000       0.00170000      -2.26460000
