13
Properties=species:S:1:pos:R:3 gdb_24707=T pbc="F F F"
C        0.02960000       1.38400000      -0.12980000
O        1.34990000       1.86280000       0.17310000
C        2.02660000       0.78790000       0.66490000
C        3.31100000       0.63720000       1.11670000
N        3.70870000      -0.58220000       1.55550000
C        2.83170000      -1.56930000       1.52490000
N        1.54400000      -1.52130000       1.09820000
C        1.19770000      -0.33540000       0.68450000
O       -0.02830000      -0.00730000       0.20630000
H       -0.70440000       1.93310000       0.46980000
H       -0.16690000       1.50740000      -1.20030000
H        4.03140000       1.44790000       1.14180000
H        3.16910000      -2.53830000       1.88050000
