23
Properties=species:S:1:pos:R:3 gdb_107623=T pbc="F F F"
C       -0.10770000       1.53030000       0.50330000
C       -0.07000000       0.08600000      -0.01540000
C       -1.43670000      -0.55290000      -0.15810000
C       -2.13190000      -1.11060000       1.07000000
C       -1.66030000      -2.04300000      -0.01930000
C       -2.69020000      -2.49230000      -1.04920000
C       -3.40880000      -1.19340000      -1.46460000
C       -2.36400000      -0.06760000      -1.27420000
O       -2.93790000       1.21840000      -1.07700000
H        0.90100000       1.95090000       0.56460000
H       -0.71060000       2.16460000      -0.15100000
H       -0.54900000       1.57250000       1.50540000
H        0.43630000       0.06190000      -0.99030000
H        0.54120000      -0.52740000       0.65900000
H       -1.56170000      -1.10000000       1.99320000
H       -3.19810000      -0.96380000       1.21850000
H       -0.82760000      -2.70230000       0.20400000
H       -2.17280000      -2.93540000      -1.90830000
H       -3.38150000      -3.25110000      -0.66600000
H       -3.79790000      -1.22270000      -2.48500000
H       -4.26570000      -0.99210000      -0.81130000
H       -1.76620000       0.04300000      -2.18790000
H       -3.35560000       1.21440000      -0.20840000
