15
Properties=species:S:1:pos:R:3 gdb_82692=T pbc="F F F"
O        0.05430000       1.45440000       0.25760000
C       -0.00460000       0.06740000       0.10300000
C        0.20240000      -0.74350000       1.39970000
C       -0.94520000      -0.24030000       2.29310000
N       -1.93530000      -0.89610000       1.36540000
C       -0.85740000      -1.76710000       0.84930000
C       -1.36310000      -0.65290000      -0.01090000
C       -2.24360000      -0.66830000      -1.13100000
N       -2.91100000      -0.64670000      -2.07580000
H       -0.08600000       1.87390000      -0.59760000
H        0.65520000      -0.29670000      -0.69490000
H        1.20500000      -0.94510000       1.76720000
H       -1.00250000      -0.75960000       3.25170000
H       -1.06340000       0.83740000       2.42210000
H       -0.91850000      -2.83930000       0.72710000
