13
Properties=species:S:1:pos:R:3 gdb_692=T pbc="F F F"
O        0.02690000       1.39520000      -0.10200000
C        0.03400000      -0.00010000      -0.01190000
C        0.31510000      -0.66530000       1.39710000
C       -1.08380000      -1.27560000       1.33170000
N       -2.01770000      -0.12850000       1.18530000
C       -1.34040000      -0.69120000      -0.01190000
H       -0.69290000       1.68130000       0.47770000
H        0.70930000      -0.37440000      -0.78420000
H        1.11780000      -1.40490000       1.35170000
H        0.49390000       0.02980000       2.22110000
H       -1.42960000      -2.21310000       1.74830000
H       -2.96830000      -0.49450000       1.19710000
H       -1.91760000      -1.06010000      -0.85110000
