13
Properties=species:S:1:pos:R:3 gdb_129335=T pbc="F F F"
N        0.34940000       1.26920000       0.00360000
C        0.07320000       0.03560000       0.00140000
N       -1.21930000      -0.49180000       0.01270000
C       -2.45100000       0.10360000       0.02720000
N       -3.48430000      -0.75250000       0.03540000
C       -4.65540000      -0.14420000       0.04930000
N       -4.85490000       1.18040000       0.05530000
N       -3.77950000       1.95190000       0.04640000
N       -2.56560000       1.44530000       0.03230000
H        1.36030000       1.39570000      -0.00660000
H        0.79930000      -0.78610000      -0.00970000
H       -1.28680000      -1.49940000       0.01010000
H       -5.54950000      -0.76280000       0.05680000
