19
Properties=species:S:1:pos:R:3 gdb_133662=T pbc="F F F"
C        0.17120000       1.38330000      -0.64360000
C        0.01450000      -0.00280000      -0.01080000
C       -1.46120000      -0.37960000       0.12690000
N        0.68080000      -1.02710000      -0.82540000
C        2.13080000      -1.04810000      -0.79710000
C        2.73440000      -0.78790000      -2.17290000
F        2.39000000       0.41120000      -2.66310000
F        4.07810000      -0.82370000      -2.10270000
F        2.35110000      -1.71270000      -3.06200000
H        1.22130000       1.66010000      -0.76490000
H       -0.29140000       1.40120000      -1.63510000
H       -0.30640000       2.14230000      -0.01580000
H        0.45420000       0.03480000       1.00430000
H       -1.93490000      -0.43420000      -0.85870000
H       -1.58030000      -1.35230000       0.61810000
H       -1.99500000       0.36330000       0.72590000
H        0.31140000      -1.94050000      -0.60220000
H        2.54300000      -0.29320000      -0.11620000
H        2.52370000      -2.01870000      -0.47340000
