23
Properties=species:S:1:pos:R:3 gdb_41870=T pbc="F F F"
C       -0.04510000       1.56630000      -0.08540000
C        1.44430000       2.01930000      -0.02750000
C        2.20080000       0.81230000       0.54650000
C        3.69910000       0.70230000       0.26630000
C        4.19600000      -0.69890000       0.53950000
C        3.39790000      -1.75540000       0.70270000
C        1.89030000      -1.69920000       0.60730000
C        1.43430000      -0.38830000      -0.03230000
C       -0.03600000       0.02380000       0.13220000
H       -0.64380000       2.06370000       0.68290000
H       -0.49480000       1.83110000      -1.04650000
H        1.81450000       2.23330000      -1.03760000
H        1.58440000       2.93140000       0.56010000
H        2.05740000       0.79360000       1.63810000
H        3.90890000       0.97140000      -0.78090000
H        4.26620000       1.42200000       0.87120000
H        5.27380000      -0.83060000       0.60680000
H        3.83810000      -2.72730000       0.91460000
H        1.52180000      -2.56320000       0.03880000
H        1.45210000      -1.80230000       1.61250000
H        1.66850000      -0.43560000      -1.10720000
H       -0.36920000      -0.21710000       1.14920000
H       -0.70740000      -0.50220000      -0.55300000
