17
Properties=species:S:1:pos:R:3 gdb_67427=T pbc="F F F"
C       -0.06250000       1.55600000      -0.09360000
C        0.01400000       0.06640000      -0.01560000
C        0.57580000      -1.01240000      -0.90860000
C        1.33390000      -1.66730000       0.24340000
C        0.28040000      -0.97650000       1.14780000
O       -0.95040000      -1.68880000       0.84400000
C       -0.92090000      -1.05390000      -0.41910000
C       -2.04770000      -1.06090000      -1.35060000
O       -3.09080000      -1.64290000      -1.18120000
H        0.90480000       2.01060000       0.14850000
H       -0.33440000       1.87980000      -1.10330000
H       -0.80800000       1.95500000       0.60180000
H        0.82630000      -0.95740000      -1.96070000
H        1.38030000      -2.75790000       0.30260000
H        2.32680000      -1.22640000       0.36210000
H        0.42230000      -0.78550000       2.20920000
H       -1.85020000      -0.45790000      -2.26780000
