13
Properties=species:S:1:pos:R:3 gdb_11207=T pbc="F F F"
N       -0.10130000       1.12530000       0.77570000
C       -0.02760000       0.04600000       0.14130000
O        0.92150000      -0.32490000      -0.76420000
C        0.73210000      -1.69630000      -1.12500000
C       -0.70830000      -1.96130000      -0.67480000
O       -0.95410000      -0.94290000       0.29050000
C       -1.73360000      -1.86190000      -1.80670000
O       -1.51800000      -2.25670000      -2.92090000
H        0.69580000       1.71830000       0.55820000
H        0.85190000      -1.81330000      -2.20310000
H        1.45930000      -2.31930000      -0.59510000
H       -0.83080000      -2.93690000      -0.19090000
H       -2.69780000      -1.40290000      -1.50310000
