19
Properties=species:S:1:pos:R:3 gdb_31492=T pbc="F F F"
C       -0.40470000       1.59630000      -0.15600000
C       -0.22460000       0.12120000       0.03900000
C        0.21640000      -0.78570000      -0.90650000
N        0.68450000      -0.63670000      -2.22870000
N        0.21540000      -2.03470000      -0.33620000
C       -0.20330000      -1.95400000       0.97540000
C       -0.30900000      -3.17540000       1.82110000
O        0.88200000      -3.96750000       1.80040000
C       -0.47240000      -0.62920000       1.23030000
H        0.37330000       2.18610000       0.34570000
H       -0.37900000       1.86290000      -1.21850000
H       -1.36770000       1.93910000       0.23850000
H        0.96510000       0.31900000      -2.40880000
H       -0.01390000      -0.89040000      -2.92210000
H        0.62420000      -2.85240000      -0.75640000
H       -0.58620000      -2.87710000       2.84240000
H       -1.09110000      -3.85460000       1.45910000
H        1.60550000      -3.38960000       2.06730000
H       -0.84350000      -0.23620000       2.16640000
