15
Properties=species:S:1:pos:R:3 gdb_25636=T pbc="F F F"
C       -0.04670000       1.47110000      -0.00120000
C       -0.01450000       0.01730000      -0.02550000
C       -0.00840000      -1.19020000      -0.05200000
C        0.03910000      -2.59870000      -0.07650000
C        1.15720000      -3.39130000      -0.02110000
N        2.50590000      -3.12770000      -0.01280000
O        0.77270000      -4.68940000      -0.06280000
C       -0.59790000      -4.63190000      -0.14430000
N       -1.08070000      -3.44380000      -0.16200000
H        0.60360000       1.90220000      -0.77110000
H       -1.06250000       1.83780000      -0.18620000
H        0.27540000       1.86920000       0.96820000
H        2.70600000      -2.16300000       0.21480000
H        3.05480000      -3.77230000       0.54080000
H       -1.11120000      -5.57880000      -0.17780000
