13
Properties=species:S:1:pos:R:3 gdb_23893=T pbc="F F F"
C        0.01370000       1.50160000       0.00990000
C        0.01290000       0.04770000      -0.04760000
C        0.00970000      -1.15380000      -0.09450000
C        0.00360000      -2.60740000      -0.15080000
C       -1.37020000      -3.21130000       0.12370000
F       -2.27980000      -2.80610000      -0.76950000
F       -1.30140000      -4.55130000       0.05570000
F       -1.82120000      -2.88970000       1.34120000
H        0.73610000       1.86980000       0.74630000
H        0.27380000       1.93790000      -0.96050000
H       -0.97320000       1.88360000       0.29260000
H        0.31810000      -2.96940000      -1.13610000
H        0.69210000      -3.03760000       0.58510000
