20
Properties=species:S:1:pos:R:3 gdb_39656=T pbc="F F F"
C        0.48470000       1.55990000       0.50910000
C        2.01080000       1.35390000       0.50890000
C        1.69020000       0.10380000       1.36590000
O        0.27120000       0.27470000       1.13460000
C        2.31960000      -1.20990000       0.97360000
C        1.73920000      -2.56610000       0.96170000
C        0.30090000      -2.62640000       0.44500000
C        0.82100000      -1.90030000      -0.81710000
N        2.25350000      -1.90980000      -0.32580000
H        0.13030000       2.37990000       1.14680000
H       -0.00990000       1.62780000      -0.46600000
H        2.42560000       1.10430000      -0.46910000
H        2.61670000       2.12990000       0.97790000
H        1.91320000       0.25960000       2.43320000
H        3.36060000      -1.20320000       1.30450000
H        2.26380000      -3.40310000       1.41490000
H       -0.01940000      -3.64920000       0.23770000
H       -0.45590000      -2.12060000       1.04420000
H        0.76700000      -2.50790000      -1.72290000
H        0.41540000      -0.91000000      -1.02500000
