17
Properties=species:S:1:pos:R:3 gdb_48419=T pbc="F F F"
O       -0.11150000       0.01090000      -0.06690000
C        0.01670000       1.19910000       0.03460000
C        1.36060000       1.95740000      -0.01170000
C        2.54130000       0.96840000      -0.24270000
C        2.79520000       1.06940000      -1.72500000
C        2.14270000       2.08170000      -2.29020000
C        1.32540000       2.86630000      -1.29630000
C        1.44210000       2.72910000       1.22090000
C        1.46440000       3.35490000       2.24780000
H       -0.85680000       1.87430000       0.16590000
H        3.42150000       1.26340000       0.33960000
H        2.25560000      -0.03880000       0.07410000
H        3.46100000       0.38750000      -2.24150000
H        2.19180000       2.35810000      -3.33720000
H        0.29600000       3.05580000      -1.62790000
H        1.76520000       3.84810000      -1.08500000
H        1.50460000       3.90940000       3.15280000
