14
Properties=species:S:1:pos:R:3 gdb_18952=T pbc="F F F"
O       -0.05390000      -0.12470000      -0.18900000
C        0.00240000       1.05590000       0.04610000
C        1.26000000       1.87030000       0.03320000
C        1.19750000       3.25990000      -0.66560000
C        0.52320000       3.95170000       0.56290000
O        1.50110000       5.02860000       0.64290000
C        2.27800000       3.85040000       0.29160000
C        1.46410000       2.87920000       1.20080000
H       -0.91990000       1.63230000       0.29770000
H        2.11810000       1.24170000      -0.21770000
H        1.04980000       3.49360000      -1.71920000
H       -0.52110000       4.18650000       0.75990000
H        3.35480000       3.94110000       0.15630000
H        1.61830000       2.68190000       2.26100000
