15
Properties=species:S:1:pos:R:3 gdb_15295=T pbc="F F F"
O       -0.24980000       0.26930000       0.73780000
C        0.32960000       0.68120000      -0.23560000
C        1.39470000       1.72170000      -0.18060000
N        2.30680000       1.76850000      -1.34380000
C        1.42250000       2.89650000      -1.12030000
C        0.34580000       3.16950000      -2.16330000
C        0.80980000       4.10280000      -3.18410000
C        1.21490000       4.88170000      -4.00440000
H        0.11280000       0.29940000      -1.25690000
H        1.78620000       1.89610000       0.81890000
H        3.25720000       1.96550000      -1.04440000
H        1.85120000       3.80150000      -0.69290000
H        0.04550000       2.22680000      -2.63180000
H       -0.54380000       3.57780000      -1.66660000
H        1.56250000       5.56330000      -4.74060000
