19
Properties=species:S:1:pos:R:3 gdb_32724=T pbc="F F F"
C       -0.19560000       1.54130000       0.27880000
C       -0.04240000       0.06780000       0.07740000
C        0.05220000      -0.63500000      -1.10280000
C        0.06240000      -0.22190000      -2.53760000
C        1.46750000      -0.17560000      -3.14750000
O        1.32920000       0.18590000      -4.51120000
N        0.18370000      -1.95900000      -0.71390000
C        0.15470000      -1.99250000       0.64690000
N        0.02170000      -0.79250000       1.15690000
H        0.68290000       1.96830000       0.77570000
H       -0.33140000       2.06580000      -0.67100000
H       -1.05960000       1.75820000       0.91540000
H       -0.55120000      -0.89920000      -3.14550000
H       -0.38730000       0.77040000      -2.63600000
H        2.08070000       0.55010000      -2.59210000
H        1.95280000      -1.15990000      -3.03980000
H        2.20760000       0.27970000      -4.89070000
H        0.25140000      -2.75060000      -1.33150000
H        0.23110000      -2.91520000       1.20320000
