17
Properties=species:S:1:pos:R:3 gdb_70591=T pbc="F F F"
O       -0.03120000       1.36600000       0.02560000
C        0.01570000      -0.03350000       0.03050000
C       -0.27520000      -0.69520000       1.34440000
C        1.12590000      -0.73180000       0.77820000
O        1.58610000      -1.96040000       0.29520000
C        1.75540000      -2.03850000      -1.10940000
C        0.49760000      -1.66570000      -1.87160000
O       -0.73690000      -2.05780000      -1.26760000
C       -0.40040000      -0.66910000      -1.27190000
H        0.68200000       1.69150000      -0.53560000
H       -0.45970000      -0.03620000       2.18470000
H       -0.82920000      -1.62560000       1.32040000
H        1.88920000      -0.11270000       1.24750000
H        2.58080000      -1.39460000      -1.45960000
H        2.03420000      -3.07730000      -1.31220000
H        0.54780000      -1.78290000      -2.95430000
H       -1.03140000      -0.03820000      -1.89700000
