19
Properties=species:S:1:pos:R:3 gdb_127118=T pbc="F F F"
C       -0.01630000       1.37280000       0.19210000
N       -0.06510000      -0.01610000      -0.22650000
C        1.16970000      -0.76910000      -0.12590000
C       -1.24340000      -0.70320000      -0.07010000
N       -1.30530000      -2.03590000      -0.05340000
N       -2.65090000      -2.25700000       0.04580000
C       -3.16940000      -3.60220000       0.09070000
C       -3.29800000      -1.08380000       0.10110000
N       -2.45370000      -0.07110000       0.03480000
H        0.77050000       1.88980000      -0.36650000
H       -0.97450000       1.84680000      -0.01710000
H        0.19840000       1.48290000       1.26790000
H        1.43960000      -1.00780000       0.91570000
H        1.07260000      -1.70840000      -0.67230000
H        1.98120000      -0.18170000      -0.56580000
H       -4.25640000      -3.55730000       0.18210000
H       -2.90560000      -4.14240000      -0.82310000
H       -2.75610000      -4.14060000       0.94850000
H       -4.37230000      -1.01100000       0.18980000
