21
Properties=species:S:1:pos:R:3 gdb_107553=T pbc="F F F"
C       -0.09390000       1.50420000      -0.10230000
C       -0.04420000       0.00790000      -0.07440000
C        0.11880000      -0.81290000      -1.11840000
C        0.11620000      -2.27440000      -0.72880000
C        0.03380000      -2.22950000       0.79590000
C        1.13870000      -1.53790000       1.55270000
C       -0.13580000      -0.77640000       1.20870000
C       -1.05400000      -0.33880000       2.32250000
O       -0.62270000       0.85690000       2.96240000
H        0.72300000       1.94020000       0.48520000
H       -0.02460000       1.88170000      -1.12630000
H       -1.01870000       1.88370000       0.34560000
H        0.26200000      -0.48350000      -2.14230000
H       -0.74360000      -2.80640000      -1.15910000
H        1.01100000      -2.80350000      -1.08270000
H       -0.51000000      -3.01100000       1.31470000
H        1.28210000      -1.84440000       2.58570000
H        2.05050000      -1.27000000       1.02850000
H       -2.05470000      -0.11690000       1.93530000
H       -1.16070000      -1.16040000       3.04930000
H        0.29310000       0.71840000       3.22740000
