20
Properties=species:S:1:pos:R:3 gdb_126619=T pbc="F F F"
C       -0.05820000       1.52710000      -0.00180000
C       -0.02460000      -0.00250000      -0.03050000
C        0.75300000      -0.53390000      -1.23930000
N        0.79400000      -1.98610000      -1.28360000
N        1.76090000      -2.68460000      -0.70180000
C        1.38920000      -3.95120000      -0.89410000
C        0.17340000      -3.97280000      -1.59980000
C       -0.65350000      -5.12530000      -2.07030000
N       -0.18370000      -2.70450000      -1.82980000
H        0.95190000       1.94760000       0.05500000
H       -0.53690000       1.93280000      -0.90000000
H       -0.61780000       1.88980000       0.86500000
H        0.44110000      -0.38990000       0.88260000
H       -1.04280000      -0.40540000      -0.06570000
H        0.29380000      -0.19910000      -2.17290000
H        1.79050000      -0.19190000      -1.21560000
H        1.99680000      -4.76740000      -0.53560000
H       -0.96120000      -5.76450000      -1.23600000
H       -1.55190000      -4.75900000      -2.57120000
H       -0.10040000      -5.75490000      -2.77560000
