23
Properties=species:S:1:pos:R:3 gdb_40232=T pbc="F F F"
C        0.05890000       1.52630000      -0.00410000
C        1.31960000       0.69220000       0.00150000
C       -0.03720000       0.02110000      -0.00070000
C       -0.47140000      -0.68050000       1.27770000
C       -0.10780000      -2.16990000       1.22140000
C       -0.86740000      -2.89270000       0.09570000
C       -0.85030000      -2.13550000      -1.23460000
C       -1.88970000      -1.07290000      -1.51290000
C       -0.45590000      -0.67040000      -1.26960000
H       -0.20520000       2.05840000       0.90460000
H       -0.20040000       2.05280000      -0.91690000
H        1.91170000       0.65860000      -0.90740000
H        1.90830000       0.65990000       0.91280000
H        0.00560000      -0.19800000       2.13800000
H       -1.55510000      -0.57040000       1.42660000
H        0.97300000      -2.25940000       1.05300000
H       -0.32070000      -2.65500000       2.18060000
H       -0.43580000      -3.88870000      -0.04970000
H       -1.90540000      -3.05810000       0.41190000
H       -0.54420000      -2.72640000      -2.09240000
H       -2.28500000      -0.97970000      -2.51880000
H       -2.61830000      -0.87200000      -0.73310000
H        0.09190000      -0.34280000      -2.14950000
