18
Properties=species:S:1:pos:R:3 gdb_74258=T pbc="F F F"
C       -0.02280000       1.53500000       0.00120000
C        0.00430000      -0.00020000      -0.02410000
C       -1.41780000      -0.57660000      -0.08060000
N        0.80570000      -0.49120000      -1.15840000
C        1.78360000      -1.14990000      -0.66160000
N        2.82480000      -1.70660000      -1.37130000
N        1.79830000      -1.24880000       0.73340000
C        0.72670000      -0.52220000       1.23850000
O        0.45940000      -0.35390000       2.40260000
H        0.99180000       1.94320000       0.01760000
H       -0.52580000       1.90900000      -0.89460000
H       -0.55460000       1.88840000       0.88890000
H       -1.93060000      -0.20860000      -0.97340000
H       -1.39490000      -1.66920000      -0.12700000
H       -1.98090000      -0.27720000       0.80790000
H        2.63900000      -1.71570000      -2.36520000
H        3.15830000      -2.59790000      -1.03130000
H        2.54700000      -1.60970000       1.30310000
