17
Properties=species:S:1:pos:R:3 gdb_125908=T pbc="F F F"
C        0.12400000       1.48170000       0.08090000
C       -0.03500000      -0.03350000      -0.03770000
C        0.73380000      -0.61490000      -1.28750000
C        1.93390000      -1.22290000      -0.62720000
C        1.75640000      -1.23340000       0.72870000
N        2.84020000      -1.85360000       1.21960000
N        3.68200000      -2.20710000       0.17560000
N        3.10630000      -1.82660000      -0.93040000
N        0.54060000      -0.73580000       1.17170000
H        1.18340000       1.75890000       0.10990000
H       -0.33590000       1.98330000      -0.77630000
H       -0.36030000       1.86290000       0.98710000
H       -1.09780000      -0.28410000      -0.09360000
H        0.12290000      -1.36080000      -1.80850000
H        0.96120000       0.17820000      -2.00710000
H        3.11770000      -2.06590000       2.16280000
H        0.56760000      -0.14460000       1.99440000
