15
Properties=species:S:1:pos:R:3 gdb_128736=T pbc="F F F"
C        0.09190000       1.45470000      -0.01940000
O        0.03150000       0.02290000       0.00800000
C        0.53010000      -0.59580000      -1.05540000
N        1.05130000      -0.01460000      -2.10200000
O        1.41350000      -1.05430000      -2.93580000
N        1.10470000      -2.26380000      -2.38400000
C        0.55720000      -2.01880000      -1.22720000
C        0.12530000      -3.09560000      -0.27900000
O        1.00890000      -3.21450000       0.82510000
H        1.12990000       1.79210000      -0.09450000
H       -0.47310000       1.84590000      -0.87080000
H       -0.35060000       1.78790000       0.91880000
H       -0.84940000      -2.84190000       0.14710000
H        0.02300000      -4.03580000      -0.83590000
H        1.86620000      -3.49090000       0.48340000
