16
Properties=species:S:1:pos:R:3 gdb_93186=T pbc="F F F"
C       -0.09020000       1.49900000       0.06260000
C       -0.02490000      -0.01040000      -0.08920000
C        0.91130000      -0.47360000      -1.19520000
N        0.96420000      -1.92390000      -1.17670000
C        0.92530000      -2.66200000      -0.03110000
O        1.00640000      -3.86730000       0.00480000
C        0.79740000      -1.83710000       1.27790000
O        1.05040000      -2.31650000       2.34140000
O        0.42560000      -0.53620000       1.17840000
H        0.90430000       1.91240000       0.25370000
H       -0.49420000       1.95590000      -0.84550000
H       -0.73790000       1.76220000       0.90170000
H       -1.02640000      -0.41610000      -0.28540000
H        0.52620000      -0.14150000      -2.16370000
H        1.90480000      -0.02290000      -1.05580000
H        1.15970000      -2.44010000      -2.02230000
