12
Properties=species:S:1:pos:R:3 gdb_21931=T pbc="F F F"
O        0.42920000       0.55540000       0.90950000
C       -0.03030000       0.08860000      -0.33710000
C       -1.45440000      -0.38210000      -0.29610000
N       -1.99700000      -1.39940000      -0.89470000
C       -3.31110000      -1.27560000      -0.50910000
O       -4.25130000      -2.13030000      -0.90260000
N       -3.58610000      -0.26570000       0.27710000
O       -2.31790000       0.34310000       0.41540000
H       -0.15090000       1.26830000       1.19850000
H        0.05980000       0.85270000      -1.12680000
H        0.59790000      -0.75640000      -0.62690000
H       -3.82190000      -2.79000000      -1.46130000
