22
Properties=species:S:1:pos:R:3 gdb_113833=T pbc="F F F"
C        3.12540000      -1.15150000       1.26090000
N        1.85390000      -1.17710000       0.54630000
C        0.76570000      -1.89070000       1.20420000
C        0.73830000      -0.39800000       1.10350000
C        0.92470000       0.54050000       2.26660000
C       -0.26340000       1.25090000       2.87060000
C        0.53740000       0.29300000       3.71410000
C       -0.10470000      -0.97420000       4.20520000
O        0.92130000      -1.92190000       4.49490000
H        3.02790000      -1.15670000       2.35650000
H        3.70570000      -2.03170000       0.96590000
H        3.69300000      -0.26290000       0.96360000
H        0.13100000      -2.48940000       0.55430000
H        0.97050000      -2.31870000       2.18220000
H        0.11590000       0.02630000       0.31550000
H        1.80600000       1.16970000       2.15990000
H       -0.19870000       2.31460000       3.07030000
H       -1.24730000       0.91970000       2.54990000
H        1.20740000       0.73670000       4.44600000
H       -0.68890000      -0.75350000       5.11190000
H       -0.80310000      -1.36300000       3.44970000
H        0.51490000      -2.68480000       4.91780000
