19
Properties=species:S:1:pos:R:3 gdb_89258=T pbc="F F F"
C       -0.22280000       1.57930000      -0.01900000
C        0.04730000       0.08070000      -0.00480000
C        1.16920000      -0.49790000      -0.93700000
C        1.79660000      -1.23430000       0.28680000
O        1.89370000      -2.62670000       0.28470000
C        2.92200000      -0.47350000       1.05870000
O        2.65780000       0.92470000       0.94490000
C        1.91900000       0.17310000       1.92410000
C        0.75130000      -0.57080000       1.22860000
H        0.69780000       2.14740000       0.12880000
H       -0.66300000       1.88340000      -0.97530000
H       -0.92980000       1.85730000       0.77110000
H       -0.88920000      -0.45640000      -0.18660000
H        0.80460000      -1.19070000      -1.69960000
H        1.81290000       0.25360000      -1.39830000
H        2.56170000      -2.88030000      -0.36300000
H        3.94630000      -0.78260000       1.24440000
H        1.98420000       0.52540000       2.94750000
H        0.16110000      -1.19210000       1.90290000
