17
Properties=species:S:1:pos:R:3 gdb_51374=T pbc="F F F"
O       -0.15840000       0.04820000       0.13240000
C        0.00650000       1.22710000       0.22260000
O        1.03650000       1.86400000      -0.37170000
C        1.13110000       3.26430000      -0.14140000
C        1.99240000       3.95900000       0.86460000
C        3.45550000       3.46390000       1.00530000
C        3.82860000       2.27840000       0.15220000
C        3.67740000       3.63380000      -0.48460000
C        2.21780000       4.13040000      -0.66460000
H       -0.65780000       1.91190000       0.78370000
H        0.15680000       3.74320000      -0.23630000
H        1.56130000       4.66350000       1.56630000
H        4.08180000       3.81210000       1.81560000
H        4.86680000       1.98140000       0.27500000
H        3.15100000       1.46290000      -0.05130000
H        4.49490000       4.13650000      -0.98340000
H        1.98730000       4.98380000      -1.29100000
