21
Properties=species:S:1:pos:R:3 gdb_78317=T pbc="F F F"
C       -0.05150000       1.43150000      -0.01400000
C        0.05970000      -0.07870000       0.02650000
C        1.41640000      -0.67740000      -0.21290000
C        0.78830000      -0.68250000       1.19600000
C        0.78770000      -2.23590000       1.21390000
C        1.50710000      -2.87580000       2.37820000
C       -0.42960000      -2.95050000       0.58190000
O        0.12940000      -2.81130000      -0.75050000
C        1.34490000      -2.21740000      -0.22520000
H        0.83920000       1.90880000       0.40870000
H       -0.16440000       1.78910000      -1.04300000
H       -0.91840000       1.77830000       0.55850000
H       -0.79410000      -0.60080000      -0.39500000
H        2.24060000      -0.08800000      -0.59850000
H        1.05610000      -0.07910000       2.05700000
H        0.93460000      -2.76220000       3.30690000
H        1.66490000      -3.94620000       2.20950000
H        2.48570000      -2.40960000       2.53730000
H       -0.52030000      -4.00820000       0.86230000
H       -1.40920000      -2.46740000       0.67720000
H        2.24690000      -2.75260000      -0.53440000
