12
Properties=species:S:1:pos:R:3 gdb_129258=T pbc="F F F"
N       -0.01400000       1.18500000       0.58590000
C       -0.05260000       0.05280000       0.02510000
O        1.12360000      -0.51560000      -0.49480000
N        1.17770000      -1.73460000      -1.11760000
C        0.06520000      -2.39160000      -1.22570000
C       -1.21820000      -1.92590000      -0.73590000
C       -1.26260000      -0.73220000      -0.12780000
C        0.16150000      -3.66320000      -1.88330000
N        0.17490000      -4.69540000      -2.40420000
H        0.93160000       1.56980000       0.59050000
H       -2.09250000      -2.54930000      -0.87460000
H       -2.17140000      -0.29950000       0.27070000
