18
Properties=species:S:1:pos:R:3 gdb_86826=T pbc="F F F"
N       -0.11850000       1.24340000      -0.08100000
C        0.03950000      -0.10180000       0.10260000
O        1.04370000      -0.63850000       0.50860000
O       -1.09100000      -0.75290000      -0.27540000
C       -1.03730000      -2.17560000      -0.17480000
C       -1.38310000      -2.81410000       1.18960000
C       -2.24500000      -3.84440000       0.42860000
O       -3.46560000      -4.13780000       1.06560000
C       -2.25550000      -2.88060000      -0.79710000
H        0.56500000       1.83400000       0.36020000
H       -1.04680000       1.60860000      -0.20970000
H       -0.07890000      -2.52290000      -0.56300000
H       -0.56510000      -3.16740000       1.81760000
H       -2.03680000      -2.15220000       1.76470000
H       -1.67930000      -4.76070000       0.21060000
H       -3.93320000      -4.79380000       0.53890000
H       -3.13510000      -2.23360000      -0.74280000
H       -2.15800000      -3.29370000      -1.80340000
