17
Properties=species:S:1:pos:R:3 gdb_69739=T pbc="F F F"
C       -0.04290000       1.54410000       0.04520000
C        0.10040000       0.05480000       0.00150000
N       -0.81400000      -0.85580000       0.71800000
C        0.63560000      -0.93880000       0.99550000
C        1.25420000      -1.80270000      -0.12900000
N        0.59250000      -3.06500000      -0.44500000
C       -0.20120000      -2.79120000      -1.39730000
O       -0.22590000      -1.54330000      -1.95150000
C        0.69050000      -0.77480000      -1.15970000
H        0.85910000       2.03970000      -0.32970000
H       -0.88720000       1.87740000      -0.56940000
H       -0.21480000       1.89190000       1.06970000
H       -1.23680000      -0.32160000       1.47630000
H        1.02120000      -0.78360000       1.99620000
H        2.33830000      -1.90590000      -0.05680000
H       -0.88430000      -3.49020000      -1.86680000
H        1.37730000      -0.23570000      -1.81400000
