16
Properties=species:S:1:pos:R:3 gdb_32024=T pbc="F F F"
C        0.01720000       1.48680000       0.01000000
N       -0.00930000       0.03870000       0.00140000
C       -1.13220000      -0.72160000       0.00960000
C       -1.13180000      -2.10980000       0.00730000
C       -2.38510000      -2.73750000       0.01580000
N       -3.56530000      -2.15250000       0.02570000
C       -3.60850000      -0.78290000       0.02830000
O       -4.60260000      -0.08810000       0.03690000
N       -2.33830000      -0.10830000       0.02000000
H        1.05730000       1.81470000       0.00090000
H       -0.47540000       1.91080000      -0.87420000
H       -0.45720000       1.90090000       0.90890000
H        0.86500000      -0.45620000      -0.00100000
H       -0.20760000      -2.67040000      -0.00080000
H       -2.40510000      -3.82810000       0.01410000
H       -2.41860000       0.89780000       0.02240000
