18
Properties=species:S:1:pos:R:3 gdb_93158=T pbc="F F F"
C       -0.06590000       1.46000000       0.08660000
N       -0.00170000       0.01010000       0.00940000
C       -1.25070000      -0.75190000      -0.04460000
C       -1.45790000      -1.54240000      -1.32180000
C       -0.53240000      -2.28860000      -1.91880000
C        0.86260000      -2.51560000      -1.40960000
O        1.08720000      -1.98340000      -0.10630000
C        1.21080000      -0.60650000      -0.05190000
O        2.28650000      -0.05990000      -0.02280000
H        0.95380000       1.84100000       0.12290000
H       -0.57650000       1.87860000      -0.78940000
H       -0.60240000       1.78030000       0.98770000
H       -1.31500000      -1.41920000       0.82430000
H       -2.06090000      -0.02630000       0.06010000
H       -2.45060000      -1.48580000      -1.75980000
H       -0.77100000      -2.80490000      -2.84650000
H        1.05280000      -3.59160000      -1.32250000
H        1.61060000      -2.11850000      -2.11280000
