29
Properties=species:S:1:pos:R:3 gdb_102640=T pbc="F F F"
C        0.27850000       1.52780000       0.01780000
C        0.21700000      -0.00170000       0.09290000
C       -1.20040000      -0.58360000       0.28040000
C       -2.02460000      -0.47180000      -1.01990000
C       -3.53840000      -0.61840000      -0.83140000
C       -1.13210000      -2.04760000       0.76670000
C       -0.76210000      -2.26120000       2.24850000
C       -1.88850000      -1.82110000       3.19510000
C       -0.39730000      -3.73070000       2.50290000
H        1.30930000       1.87340000      -0.11100000
H       -0.30510000       1.92540000      -0.81860000
H       -0.11070000       1.98190000       0.93620000
H        0.65650000      -0.43490000      -0.81660000
H        0.85710000      -0.33210000       0.91940000
H       -1.70980000       0.01940000       1.04620000
H       -1.82920000       0.49800000      -1.49160000
H       -1.66460000      -1.22890000      -1.73060000
H       -3.80990000      -1.58470000      -0.39490000
H       -3.92840000       0.16290000      -0.16930000
H       -4.06330000      -0.53360000      -1.78840000
H       -2.09480000      -2.54410000       0.58850000
H       -0.40370000      -2.57750000       0.13650000
H        0.12590000      -1.65610000       2.47830000
H       -1.59810000      -1.96090000       4.24180000
H       -2.15210000      -0.76720000       3.06510000
H       -2.79490000      -2.41400000       3.02120000
H        0.44840000      -4.04560000       1.88260000
H       -0.12700000      -3.89810000       3.55100000
H       -1.24300000      -4.38950000       2.27040000
