15
Properties=species:S:1:pos:R:3 gdb_29877=T pbc="F F F"
C        0.01130000       1.49750000      -0.01280000
N        0.00690000       0.03710000      -0.01290000
C       -1.16060000      -0.69630000      -0.12970000
C       -1.14240000      -2.03930000      -0.12760000
C        0.12760000      -2.77060000      -0.00020000
O        0.19960000      -3.98310000       0.00720000
N        1.27660000      -1.96220000       0.11470000
C        1.16460000      -0.68270000       0.10320000
O        2.25330000       0.09970000       0.21210000
H        0.60490000       1.88390000      -0.84480000
H       -1.01750000       1.84420000      -0.11610000
H        0.42790000       1.88430000       0.92040000
H       -2.06420000      -0.10570000      -0.22040000
H       -2.05730000      -2.60920000      -0.21920000
H        2.99780000      -0.51510000       0.28690000
