19
Properties=species:S:1:pos:R:3 gdb_76595=T pbc="F F F"
C        0.57150000       0.82530000       1.57930000
C        0.40450000      -0.25420000       0.53310000
C        0.08280000       0.01800000      -0.89940000
C       -0.11340000       1.40460000      -1.47060000
C        1.47240000      -0.54320000      -0.53980000
C        2.70100000       0.27650000      -0.66000000
O        2.77760000       1.47550000      -0.44930000
C        3.88470000      -0.47090000      -1.06760000
C        4.86280000      -1.08720000      -1.40420000
H        1.10800000       1.69240000       1.19550000
H       -0.41010000       1.15070000       1.94140000
H        1.13070000       0.44120000       2.43880000
H       -0.02460000      -1.17250000       0.92730000
H       -0.54150000      -0.73520000      -1.37460000
H        0.60020000       2.12210000      -1.06640000
H        0.00850000       1.39050000      -2.55870000
H       -1.12800000       1.75800000      -1.25550000
H        1.63180000      -1.58950000      -0.77440000
H        5.73580000      -1.61620000      -1.70050000
