21
Properties=species:S:1:pos:R:3 gdb_76829=T pbc="F F F"
C       -0.85840000       1.21140000      -0.03630000
C       -0.09260000      -0.10400000       0.03440000
C        1.07870000      -0.38480000      -0.98010000
C        1.50810000       0.69230000      -1.97000000
C        2.03320000      -0.70860000       0.22320000
C        0.86840000      -0.36710000       1.23080000
C        1.67820000       0.84630000       1.77070000
C        2.79330000       0.50700000       0.76220000
O        3.86290000       0.98920000       0.52090000
H       -0.20110000       2.08560000      -0.02690000
H       -1.45750000       1.26490000      -0.95180000
H       -1.54480000       1.30460000       0.81280000
H       -0.81780000      -0.92220000      -0.02350000
H        0.87810000      -1.30470000      -1.53680000
H        1.73210000       1.64640000      -1.48440000
H        2.41270000       0.38340000      -2.50410000
H        0.72460000       0.87110000      -2.71410000
H        2.58020000      -1.65170000       0.18030000
H        0.52550000      -1.07230000       1.98720000
H        1.24120000       1.84590000       1.70020000
H        2.02710000       0.70470000       2.79970000
