19
Properties=species:S:1:pos:R:3 gdb_100857=T pbc="F F F"
C        0.31380000       1.75150000       0.17960000
C        0.11280000       0.23930000       0.31090000
C        0.29430000      -0.48500000      -1.03420000
O        1.61380000      -0.35020000      -1.54330000
N        0.98670000      -0.37450000       1.33320000
C        0.49710000      -1.43250000       2.09800000
N       -0.67880000      -1.88650000       1.92910000
C        2.31150000       0.00090000       1.50070000
O        3.08570000      -0.53040000       2.26560000
H        1.23080000       1.99810000      -0.36070000
H       -0.52190000       2.16850000      -0.39000000
H        0.33160000       2.23890000       1.15810000
H       -0.90370000       0.03720000       0.65680000
H        0.00820000      -1.53720000      -0.92170000
H       -0.37780000      -0.03150000      -1.77120000
H        2.14890000      -1.06370000      -1.18460000
H        1.24000000      -1.78340000       2.81530000
H       -0.85910000      -2.64190000       2.58750000
H        2.59400000       0.84410000       0.85520000
