14
Properties=species:S:1:pos:R:3 gdb_1309=T pbc="F F F"
C       -0.05680000       1.59310000      -0.00980000
C       -0.04250000       0.07290000      -0.02140000
O       -1.33200000      -0.48030000       0.14740000
C        0.71990000      -0.61900000      -1.19350000
N        1.68660000      -1.09670000      -0.19450000
C        1.02320000      -0.60240000       0.89680000
O        1.18080000      -0.69630000       2.08610000
H        0.93840000       2.00240000      -0.20930000
H       -0.75390000       1.96820000      -0.76500000
H       -0.38000000       1.95720000       0.97100000
H       -1.54980000      -0.41480000       1.08490000
H        0.13220000      -1.40960000      -1.66700000
H        1.14720000       0.04770000      -1.94800000
H        2.44710000      -1.75700000      -0.26490000
