25
Properties=species:S:1:pos:R:3 gdb_117623=T pbc="F F F"
C       -0.13250000       1.64120000       0.01220000
C        0.00690000       0.11460000       0.00270000
C       -1.35920000      -0.58300000       0.01180000
C       -1.35440000      -2.14130000       0.00340000
C       -0.66720000      -2.68940000      -1.26930000
C       -0.64350000      -2.70310000       1.25690000
C       -2.75440000      -2.58910000       0.01410000
C       -3.90510000      -2.94630000       0.02320000
C       -5.29540000      -3.38110000       0.03460000
H        0.84610000       2.13140000       0.00560000
H       -0.68810000       1.99280000      -0.86420000
H       -0.67150000       1.98330000       0.90250000
H        0.58010000      -0.18700000      -0.88180000
H        0.59660000      -0.19630000       0.87290000
H       -1.92170000      -0.25480000       0.89490000
H       -1.93820000      -0.24540000      -0.85690000
H        0.39430000      -2.42480000      -1.28770000
H       -0.74440000      -3.77980000      -1.30430000
H       -1.13950000      -2.28930000      -2.17140000
H       -1.09860000      -2.31260000       2.17200000
H       -0.72010000      -3.79370000       1.28160000
H        0.41820000      -2.43860000       1.25810000
H       -5.37270000      -4.47420000       0.03030000
H       -5.82060000      -3.01750000       0.92510000
H       -5.83770000      -3.00920000      -0.84210000
