22
Properties=species:S:1:pos:R:3 gdb_59426=T pbc="F F F"
C       -1.44120000      -0.40770000      -0.28850000
C       -0.02120000       0.11700000      -0.02330000
C       -0.02640000       1.64290000       0.11410000
N        0.68190000      -0.43680000       1.14820000
C       -0.02890000      -1.09740000       2.24530000
C        0.86580000      -1.84930000       1.33270000
C        0.54660000      -3.03890000       0.41880000
O        1.78130000      -3.67730000       0.80090000
C        2.19990000      -2.54270000       1.59450000
H       -2.13810000      -0.08490000       0.49200000
H       -1.80700000      -0.00670000      -1.23890000
H       -1.48550000      -1.49850000      -0.35580000
H        0.60610000      -0.14580000      -0.88550000
H       -0.62020000       1.94720000       0.98330000
H        0.99040000       2.01780000       0.25240000
H       -0.45970000       2.11480000      -0.77350000
H        0.29730000      -0.82720000       3.24750000
H       -1.09710000      -1.28510000       2.15400000
H       -0.33230000      -3.64280000       0.67730000
H        0.52290000      -2.81210000      -0.65610000
H        3.07080000      -2.03130000       1.16390000
H        2.41600000      -2.82280000       2.63270000
