21
Properties=species:S:1:pos:R:3 gdb_115570=T pbc="F F F"
C        0.23170000       1.58980000       0.07280000
C        0.09540000       0.06330000       0.08510000
C        0.48540000      -0.53900000      -1.25570000
O        1.88080000      -0.34150000      -1.56720000
C        2.13590000      -1.76040000      -1.63720000
C        0.65350000      -2.09790000      -1.39500000
C        0.30100000      -2.98640000      -0.20370000
C       -0.07550000      -2.58990000      -2.62720000
O        0.43390000      -2.86370000      -3.68290000
H        1.25480000       1.87770000      -0.18400000
H       -0.44080000       2.04180000      -0.66450000
H       -0.00930000       2.01420000       1.05160000
H        0.73170000      -0.35590000       0.87220000
H       -0.93840000      -0.22500000       0.31670000
H       -0.14830000      -0.10290000      -2.04410000
H        2.51830000      -2.06610000      -2.61550000
H        2.82020000      -2.09250000      -0.84680000
H        0.74760000      -2.61300000       0.72050000
H       -0.78280000      -3.04760000      -0.05440000
H        0.67150000      -4.00450000      -0.36540000
H       -1.17980000      -2.67280000      -2.48690000
