22
Properties=species:S:1:pos:R:3 gdb_22847=T pbc="F F F"
O       -0.00250000       1.40640000      -0.01190000
N        0.09060000       0.00090000      -0.01520000
C       -1.05190000      -0.57500000       0.02710000
C       -2.38050000       0.14010000       0.04420000
C       -3.05010000       0.10150000      -1.35120000
C       -3.84960000      -1.17910000      -1.67300000
C       -3.31960000      -2.50620000      -1.09080000
C       -1.79820000      -2.72760000      -1.15800000
C       -1.01480000      -2.08070000       0.00450000
H        0.92520000       1.66290000      -0.01050000
H       -3.03870000      -0.32260000       0.78940000
H       -2.21830000       1.17530000       0.34450000
H       -3.72330000       0.96060000      -1.44360000
H       -2.26910000       0.25520000      -2.10360000
H       -4.88150000      -1.05510000      -1.32200000
H       -3.91730000      -1.27010000      -2.76400000
H       -3.63310000      -2.59930000      -0.04250000
H       -3.82630000      -3.32250000      -1.61850000
H       -1.59730000      -3.80450000      -1.12240000
H       -1.39950000      -2.37460000      -2.11760000
H        0.03310000      -2.39070000      -0.02970000
H       -1.43520000      -2.45930000       0.94810000
