19
Properties=species:S:1:pos:R:3 gdb_35327=T pbc="F F F"
C       -0.80360000      -0.76500000      -1.16770000
C       -0.34740000       0.17690000      -0.57460000
C        0.21100000       1.29510000       0.15440000
C       -0.05390000       1.39970000       1.69270000
C        1.40110000       1.88520000       1.86580000
C        1.70820000       3.36500000       2.19050000
C        2.48390000       2.78880000       3.39020000
O        2.14570000       1.43840000       3.00840000
C        1.74090000       1.29300000       0.48140000
H       -1.20740000      -1.59440000      -1.69320000
H       -0.06480000       2.23400000      -0.33690000
H       -0.86390000       2.05150000       2.02850000
H       -0.17410000       0.40770000       2.13490000
H        2.31310000       3.88790000       1.44710000
H        0.83880000       3.97540000       2.44240000
H        3.56740000       2.95550000       3.38430000
H        2.09070000       3.04340000       4.38130000
H        2.11370000       0.27170000       0.59080000
H        2.40490000       1.85730000      -0.17770000
