20
Properties=species:S:1:pos:R:3 gdb_14981=T pbc="F F F"
O       -0.02480000       1.43510000       0.07980000
C        0.03000000       0.01780000      -0.01010000
C       -1.39450000      -0.52400000       0.02240000
C       -1.42040000      -2.05110000      -0.13710000
C       -2.86050000      -2.57490000      -0.23860000
C       -3.76570000      -1.93980000       0.78530000
C       -3.43370000      -0.85370000       1.48200000
C       -2.13350000      -0.11320000       1.30730000
H        0.87550000       1.77100000       0.10670000
H        0.52470000      -0.30020000      -0.94240000
H        0.60460000      -0.41080000       0.82890000
H       -1.92910000      -0.08130000      -0.83010000
H       -0.84550000      -2.35640000      -1.01950000
H       -0.93030000      -2.50950000       0.73270000
H       -3.25900000      -2.38940000      -1.24750000
H       -2.87180000      -3.66600000      -0.11960000
H       -4.73310000      -2.41030000       0.94600000
H       -4.12630000      -0.45720000       2.22140000
H       -1.48520000      -0.29360000       2.18000000
H       -2.30980000       0.96740000       1.30000000
