18
Properties=species:S:1:pos:R:3 gdb_93936=T pbc="F F F"
C        0.66350000       1.41930000       0.11340000
C        0.21490000       0.04520000       0.58510000
O       -0.40020000      -0.71630000      -0.43080000
C        0.58540000      -1.59790000      -0.95550000
C        1.44030000      -1.90040000       0.27550000
O        1.35180000      -0.70300000       1.04290000
C        0.93970000      -3.14420000       1.03130000
N        0.74660000      -2.95080000       2.35760000
O        0.77290000      -4.19930000       0.44940000
H        1.36220000       1.32900000      -0.72310000
H       -0.20360000       2.00260000      -0.20820000
H        1.16290000       1.95030000       0.92870000
H       -0.51100000       0.13140000       1.40530000
H        0.09420000      -2.48660000      -1.35150000
H        1.17830000      -1.11580000      -1.74460000
H        2.49040000      -2.07570000       0.01970000
H        0.91250000      -2.04370000       2.75860000
H        0.44650000      -3.72150000       2.93010000
