18
Properties=species:S:1:pos:R:3 gdb_126765=T pbc="F F F"
C        0.03260000       1.52070000       0.13820000
C        0.07720000      -0.00850000       0.09690000
N        0.75740000      -0.58700000       1.23810000
N        2.08550000      -0.73930000       1.27230000
C        2.32920000      -1.13350000       2.51890000
N        3.60580000      -1.38470000       3.03040000
C        1.10400000      -1.18850000       3.21980000
N        0.90080000      -1.62770000       4.53110000
N        0.12720000      -0.82900000       2.39250000
H        1.04480000       1.93380000       0.15160000
H       -0.48750000       1.90630000      -0.74440000
H       -0.49690000       1.86590000       1.03040000
H       -0.93200000      -0.42730000       0.08900000
H        0.60480000      -0.35770000      -0.79420000
H        4.30260000      -1.36690000       2.29550000
H        3.65060000      -2.27340000       3.51720000
H        1.53860000      -1.18290000       5.18200000
H       -0.05420000      -1.46610000       4.82710000
