18
Properties=species:S:1:pos:R:3 gdb_75913=T pbc="F F F"
C       -0.16920000       1.53100000      -0.07920000
C       -0.00650000       0.00920000       0.04490000
C        0.79380000      -0.53130000      -1.15130000
O        0.47080000      -0.47820000      -2.31740000
N        1.95930000      -1.05940000      -0.66350000
C        2.17620000      -0.89250000       0.76070000
C        0.78940000      -0.46880000       1.25410000
C        0.53000000      -0.09410000       2.64460000
O        0.14140000      -1.37900000       2.14820000
H        0.79760000       2.04260000      -0.02280000
H       -0.62140000       1.77080000      -1.04480000
H       -0.80880000       1.92630000       0.71480000
H       -0.99150000      -0.46630000       0.05050000
H        2.67120000      -1.38260000      -1.29950000
H        2.47610000      -1.82410000       1.25090000
H        2.93630000      -0.12720000       0.97270000
H        1.34560000      -0.09830000       3.36800000
H       -0.28800000       0.58510000       2.88000000
