21
Properties=species:S:1:pos:R:3 gdb_53672=T pbc="F F F"
C       -0.00520000       1.46990000      -0.12110000
C       -0.00560000       0.01400000      -0.08490000
C        0.00700000      -1.18990000      -0.05790000
C       -0.01320000      -2.64770000      -0.02090000
C       -1.42550000      -3.22710000       0.19940000
C       -1.42050000      -4.74480000       0.20110000
C       -2.77610000      -5.47850000       0.08910000
C       -2.17950000      -6.08590000      -1.19600000
O       -0.97850000      -5.29740000      -1.06620000
H        1.01210000       1.86590000      -0.21710000
H       -0.58690000       1.84920000      -0.96890000
H       -0.43860000       1.89410000       0.79170000
H        0.38320000      -3.05570000      -0.95850000
H        0.65420000      -3.00780000       0.77420000
H       -1.83110000      -2.86860000       1.15360000
H       -2.09200000      -2.86700000      -0.59230000
H       -0.78430000      -5.11820000       1.01790000
H       -3.00970000      -6.18100000       0.89020000
H       -3.62990000      -4.81640000      -0.06980000
H       -1.96750000      -7.16170000      -1.14860000
H       -2.71120000      -5.87280000      -2.13070000
