25
Properties=species:S:1:pos:R:3 gdb_110139=T pbc="F F F"
C        0.71100000       1.17510000       0.59180000
C       -0.23570000       0.41460000      -0.34580000
C        0.50930000      -0.36060000      -1.41840000
C        1.06780000      -1.75270000      -1.20330000
C        0.93970000      -2.52560000       0.09760000
C        1.05190000      -4.04220000      -0.10470000
C       -0.08340000      -1.54180000      -2.17030000
C       -1.48940000      -2.03650000      -1.91710000
O       -2.45980000      -1.28310000      -2.63560000
H        1.37090000       0.48590000       1.12810000
H        1.34530000       1.86990000       0.03050000
H        0.15420000       1.75630000       1.33350000
H       -0.87510000      -0.24720000       0.24670000
H       -0.91220000       1.13480000      -0.82770000
H        1.13830000       0.28720000      -2.02670000
H        2.02380000      -1.93510000      -1.69110000
H        1.73210000      -2.19480000       0.78210000
H       -0.00420000      -2.29690000       0.60190000
H        0.99990000      -4.57480000       0.85020000
H        0.24640000      -4.41710000      -0.74430000
H        2.00160000      -4.30640000      -0.58280000
H        0.17590000      -1.59230000      -3.22520000
H       -1.59640000      -3.06470000      -2.28020000
H       -1.72300000      -2.05320000      -0.84340000
H       -2.32920000      -0.35810000      -2.40350000
