17
Properties=species:S:1:pos:R:3 gdb_82606=T pbc="F F F"
O        0.21510000       1.43460000      -0.02900000
C        0.04140000       0.05230000      -0.02650000
C        0.09980000      -0.69650000       1.32760000
O       -0.88060000       0.05620000       2.08790000
C       -2.02980000      -0.31660000       1.30360000
C       -2.08410000      -1.84850000       1.55380000
O       -3.09380000      -2.53320000       0.84600000
C       -0.80280000      -1.82760000       0.71310000
C       -1.35690000      -0.59280000      -0.10370000
H       -0.19430000       1.74760000       0.78890000
H        0.71000000      -0.38560000      -0.77270000
H        1.00320000      -0.85660000       1.91310000
H       -2.86650000       0.36010000       1.47290000
H       -2.02010000      -2.16150000       2.60430000
H       -3.92960000      -2.37820000       1.29800000
H       -0.34420000      -2.71220000       0.27850000
H       -1.97460000      -0.66180000      -0.99320000
