21
Properties=species:S:1:pos:R:3 gdb_119645=T pbc="F F F"
O       -0.07480000       1.46450000       0.00810000
C        0.01150000       0.04720000      -0.01200000
C       -1.40980000      -0.50550000       0.03190000
C       -1.45770000      -2.01300000       0.01550000
C       -1.00540000      -2.83430000      -1.23340000
C       -1.98140000      -3.90470000      -0.75780000
C       -1.92610000      -3.92320000       0.77850000
C       -0.91760000      -2.86380000       1.20850000
C       -2.77290000      -2.90730000       0.05200000
H        0.81820000       1.82000000      -0.01930000
H        0.52200000      -0.30720000      -0.92200000
H        0.58510000      -0.32850000       0.85060000
H       -1.90230000      -0.12240000       0.93450000
H       -1.96490000      -0.10110000      -0.82380000
H       -1.34920000      -2.36740000      -2.16170000
H        0.05940000      -3.08380000      -1.31990000
H       -2.36130000      -4.75620000      -1.30770000
H       -2.26630000      -4.78810000       1.33370000
H        0.15050000      -3.11440000       1.21230000
H       -1.19340000      -2.41960000       2.17010000
H       -3.82700000      -2.67410000       0.09270000
