16
Properties=species:S:1:pos:R:3 gdb_7909=T pbc="F F F"
C       -0.10710000       1.53970000       0.01130000
C        0.04350000       0.02110000      -0.03810000
O        0.91540000      -0.34780000      -1.11720000
C        1.96170000      -1.09100000      -0.63970000
O        2.83070000      -1.52310000      -1.34500000
C        1.79710000      -1.23460000       0.83500000
C        2.79160000      -1.99360000       1.64600000
C        0.68040000      -0.59140000       1.17820000
H        0.86040000       2.01330000       0.19890000
H       -0.50220000       1.91010000      -0.93780000
H       -0.79860000       1.82450000       0.81040000
H       -0.93540000      -0.43680000      -0.23900000
H        2.87140000      -3.02500000       1.28650000
H        3.78880000      -1.55310000       1.54070000
H        2.52310000      -2.00870000       2.70470000
H        0.25630000      -0.49070000       2.16990000
