20
Properties=species:S:1:pos:R:3 gdb_12966=T pbc="F F F"
C        0.03410000       1.63810000      -0.31160000
C        0.16090000       0.13760000      -0.15040000
C        1.42550000      -0.62150000      -0.41000000
O        2.56800000       0.12940000       0.01650000
C        2.15200000      -0.01260000       1.40810000
C        2.24520000       1.25100000       2.24100000
C        0.82200000      -0.64680000       0.98280000
C        0.11970000      -1.72410000       1.75840000
H        1.01410000       2.11660000      -0.26770000
H       -0.40550000       1.87310000      -1.28720000
H       -0.60890000       2.08230000       0.45580000
H       -0.71020000      -0.41760000      -0.49880000
H        1.58090000      -1.38740000      -1.16280000
H        2.77950000      -0.79170000       1.86750000
H        3.27650000       1.61950000       2.24710000
H        1.59620000       2.04600000       1.87230000
H        1.96490000       1.02810000       3.27660000
H       -0.43970000      -1.30920000       2.60600000
H       -0.59660000      -2.26320000       1.13000000
H        0.83090000      -2.45730000       2.15670000
