14
Properties=species:S:1:pos:R:3 gdb_133612=T pbc="F F F"
F        0.02810000       0.05270000       0.29650000
C       -0.04190000       1.38030000       0.11560000
F        1.20270000       1.84250000      -0.01030000
F       -0.68650000       1.60290000      -1.04340000
C       -0.78700000       2.06110000       1.26060000
C       -2.23480000       1.52020000       1.42330000
O       -2.31230000       1.18600000       2.79990000
C       -1.00100000       0.86880000       3.18110000
O       -0.15740000       1.78160000       2.49500000
H       -0.75110000       3.13950000       1.07830000
H       -2.99620000       2.27010000       1.20450000
H       -2.40320000       0.64050000       0.78910000
H       -0.88980000       1.02260000       4.25700000
H       -0.74200000      -0.16630000       2.90500000
