18
Properties=species:S:1:pos:R:3 gdb_30459=T pbc="F F F"
C       -0.01020000       1.45110000       0.02670000
N       -0.01540000       0.00080000      -0.03050000
C        0.54610000      -0.64770000       0.90420000
O        1.15750000       0.02650000       1.96750000
C        1.76250000      -0.64530000       2.97560000
C        1.83560000      -1.98600000       3.05570000
C        2.51950000      -2.68520000       4.19700000
C        1.21800000      -2.73090000       1.97930000
C        0.60740000      -2.09360000       0.96040000
H        1.00940000       1.86200000       0.03420000
H       -0.53260000       1.84550000      -0.84820000
H       -0.51030000       1.83230000       0.92830000
H        2.17890000       0.03730000       3.70770000
H        2.92620000      -1.96950000       4.91660000
H        1.82630000      -3.34360000       4.73380000
H        3.34680000      -3.31140000       3.84250000
H        1.25400000      -3.81610000       2.00460000
H        0.13510000      -2.61640000       0.13880000
