23
Properties=species:S:1:pos:R:3 gdb_109688=T pbc="F F F"
C       -0.36610000       0.22780000      -2.40000000
O       -0.38730000      -0.84510000      -1.47410000
C       -1.65100000      -1.14970000      -0.92570000
C       -2.27890000      -0.04000000      -0.11180000
C       -2.52020000      -2.13870000      -1.68030000
C       -2.18450000      -2.62800000      -3.07410000
C       -1.73630000      -2.57380000      -0.44330000
C       -0.50170000      -3.45480000      -0.51610000
O        0.54650000      -2.96600000       0.30770000
H        0.63140000       0.24020000      -2.84580000
H       -1.11150000       0.09180000      -3.19420000
H       -0.54380000       1.19540000      -1.91280000
H       -2.55290000       0.82270000      -0.72870000
H       -3.19110000      -0.39810000       0.37270000
H       -1.59000000       0.30040000       0.66900000
H       -3.58790000      -2.01710000      -1.51090000
H       -1.11530000      -2.56060000      -3.28470000
H       -2.49000000      -3.67100000      -3.21200000
H       -2.70980000      -2.03110000      -3.82770000
H       -2.31800000      -2.71200000       0.46440000
H       -0.74040000      -4.45690000      -0.14430000
H       -0.16320000      -3.56850000      -1.55320000
H        0.76280000      -2.09540000      -0.04790000
