16
Properties=species:S:1:pos:R:3 gdb_15371=T pbc="F F F"
C        0.19130000       0.92150000       0.43440000
O       -0.08980000      -0.14470000      -0.46140000
C       -1.35410000      -0.67730000      -0.29190000
C       -1.50760000      -2.12010000      -0.67260000
C       -1.57720000      -1.71430000       0.78380000
O       -0.48070000      -1.97310000       1.63140000
C       -0.23470000      -3.26720000       1.93940000
O        0.62770000      -3.58990000       2.69770000
H        1.19330000       1.27990000       0.19030000
H       -0.52370000       1.74790000       0.30790000
H        0.16950000       0.58290000       1.47670000
H       -2.17930000       0.01000000      -0.48710000
H       -2.41220000      -2.45540000      -1.16620000
H       -0.59250000      -2.60470000      -0.99440000
H       -2.53510000      -1.74080000       1.29600000
H       -0.91250000      -3.96530000       1.41420000
