18
Properties=species:S:1:pos:R:3 gdb_59013=T pbc="F F F"
C       -0.09940000       1.50740000      -0.06050000
C       -0.02610000      -0.02400000       0.01450000
O        0.67370000      -0.55240000      -1.11670000
C        0.68780000      -0.51250000       1.23250000
C        0.17310000      -1.23000000       2.23810000
N        1.13660000      -1.51320000       3.21590000
C        2.37550000      -0.99300000       2.87490000
O        3.38890000      -1.08820000       3.52610000
C        2.15470000      -0.29260000       1.52360000
H        0.90440000       1.94150000      -0.08840000
H       -0.63320000       1.82360000      -0.96490000
H       -0.63400000       1.91440000       0.80300000
H       -1.05480000      -0.42030000       0.04100000
H        0.31370000      -0.13560000      -1.90660000
H       -0.83860000      -1.59050000       2.36450000
H        0.98360000      -2.04130000       4.05850000
H        2.80710000      -0.73390000       0.76290000
H        2.44120000       0.76160000       1.61080000
