21
Properties=species:S:1:pos:R:3 gdb_96455=T pbc="F F F"
C        0.45740000       1.59280000      -0.05950000
C       -0.05780000       0.15310000      -0.06730000
O        0.46800000      -0.44260000      -1.23100000
C       -0.07210000      -1.69120000      -1.61920000
C        0.59590000      -2.87840000      -0.92600000
C        0.15770000      -3.11020000       0.52200000
C        0.41740000      -1.98550000       1.49970000
O        1.59010000      -1.17380000       1.34570000
C        0.31190000      -0.54260000       1.23960000
H        1.54800000       1.59600000       0.02330000
H        0.17730000       2.09300000      -0.98940000
H        0.04020000       2.15410000       0.78140000
H       -1.16290000       0.16620000      -0.12050000
H       -1.16360000      -1.70690000      -1.45750000
H        0.09970000      -1.75850000      -2.69910000
H        0.37500000      -3.78610000      -1.50130000
H        1.67880000      -2.72410000      -0.96740000
H       -0.91840000      -3.33390000       0.55710000
H        0.66040000      -4.00750000       0.90500000
H        0.23960000      -2.28320000       2.53700000
H        0.05530000       0.07670000       2.10500000
