18
Properties=species:S:1:pos:R:3 gdb_16577=T pbc="F F F"
C       -0.03240000       1.56290000      -0.10180000
O        1.34020000       1.94520000       0.01310000
C        2.10440000       0.74010000       0.05930000
C        2.41590000       0.35240000       1.50860000
C        1.10190000       0.25130000       2.30690000
C       -0.00290000      -0.45470000       1.49310000
C        0.00750000       0.03040000       0.03730000
O        1.29250000      -0.25330000      -0.53250000
H       -0.62260000       2.05130000       0.68160000
H       -0.41970000       1.86740000      -1.08180000
H        3.00230000       0.86510000      -0.55340000
H        2.94500000      -0.60770000       1.48870000
H        3.08680000       1.09120000       1.95870000
H        1.26640000      -0.26800000       3.25610000
H        0.77190000       1.26440000       2.56070000
H        0.16340000      -1.53790000       1.48060000
H       -0.98620000      -0.28340000       1.94670000
H       -0.74770000      -0.47480000      -0.56880000
