19
Properties=species:S:1:pos:R:3 gdb_95896=T pbc="F F F"
O       -0.06600000       1.44840000       0.00010000
C        0.01090000       0.02560000      -0.01890000
C       -1.41660000      -0.51470000       0.06990000
C       -1.45150000      -2.01560000      -0.24120000
C       -0.95620000      -2.30180000      -1.66610000
C        0.28000000      -1.50640000      -2.00160000
C        1.04860000      -1.87750000      -3.20530000
O        0.76470000      -2.79430000      -3.94240000
C        0.70480000      -0.47200000      -1.26220000
H        0.82700000       1.80150000       0.06770000
H        0.58170000      -0.32930000       0.85820000
H       -1.82400000      -0.30200000       1.06240000
H       -2.02660000       0.03770000      -0.65500000
H       -0.81830000      -2.55080000       0.47870000
H       -2.46600000      -2.40510000      -0.11090000
H       -0.74910000      -3.36680000      -1.81320000
H       -1.73760000      -2.05780000      -2.39880000
H        1.93970000      -1.23730000      -3.39790000
H        1.60800000       0.06070000      -1.56260000
