19
Properties=species:S:1:pos:R:3 gdb_77702=T pbc="F F F"
C       -0.49860000       1.19750000      -0.15180000
C       -0.05520000      -0.24170000       0.06010000
C        1.14240000      -0.75890000      -0.76520000
C        1.25480000      -1.08500000      -2.18320000
O        1.85540000       0.10280000      -1.64100000
C        1.81300000      -1.36840000       0.47390000
C        0.76670000      -0.61530000       1.31040000
C        0.94910000       0.13010000       2.55560000
O        0.20860000      -1.10080000       2.51430000
H        0.35030000       1.88360000      -0.08850000
H       -0.95360000       1.32450000      -1.13920000
H       -1.24130000       1.49000000       0.59740000
H       -0.90580000      -0.92870000      -0.02850000
H        1.95520000      -1.85240000      -2.51110000
H        0.40850000      -0.91590000      -2.84860000
H        1.70050000      -2.45440000       0.54510000
H        2.86120000      -1.09850000       0.62170000
H        1.90420000       0.08310000       3.07750000
H        0.35640000       1.02280000       2.75000000
