16
Properties=species:S:1:pos:R:3 gdb_18136=T pbc="F F F"
C       -0.33900000       1.48200000      -0.05020000
C       -0.00830000       0.00800000      -0.07140000
C        0.60660000      -0.73980000      -1.18420000
C        1.66920000       0.07320000      -1.92120000
C        2.38940000       0.19450000      -0.54760000
C        2.72410000       1.50920000      -0.00980000
N        3.01330000       2.54800000       0.40770000
N        1.32350000      -0.60730000       0.16730000
H        0.28710000       2.08510000      -0.70910000
H       -1.37930000       1.61430000      -0.36610000
H       -0.24060000       1.88650000       0.96140000
H       -0.73270000      -0.58710000       0.48260000
H        0.23240000      -1.69990000      -1.52380000
H        2.25280000      -0.50470000      -2.63790000
H        1.33570000       0.99730000      -2.39830000
H        3.30190000      -0.40680000      -0.53020000
