14
Properties=species:S:1:pos:R:3 gdb_1837=T pbc="F F F"
C       -0.03030000       1.47490000       0.05710000
C       -0.00120000      -0.01300000      -0.03790000
C       -0.04180000      -0.80370000      -1.11430000
C        0.01330000      -2.20720000      -0.69660000
N       -0.00370000      -3.23210000      -1.44000000
O        0.08910000      -2.23420000       0.68020000
C        0.08560000      -0.89810000       1.17950000
H        0.86910000       1.85580000       0.55660000
H       -0.09460000       1.93690000      -0.93040000
H       -0.88680000       1.81530000       0.65200000
H       -0.10510000      -0.51330000      -2.15280000
H        0.04670000      -4.08220000      -0.87640000
H        1.00170000      -0.72390000       1.76150000
H       -0.76870000      -0.76460000       1.85810000
