21
Properties=species:S:1:pos:R:3 gdb_95819=T pbc="F F F"
C       -0.77420000       1.20830000       1.10680000
C       -0.05030000      -0.12820000       0.85480000
O        0.13110000      -0.35330000      -0.53780000
C        1.22370000       0.27020000      -1.15050000
O        2.39380000      -0.49250000      -1.06670000
C        3.19650000      -0.32800000       0.09590000
C        4.10710000       0.90800000      -0.03420000
C        2.47260000      -0.32490000       1.41690000
C        1.17750000      -0.24520000       1.71960000
H       -0.14560000       2.06030000       0.83030000
H       -1.69310000       1.24380000       0.51580000
H       -1.03420000       1.31560000       2.16450000
H       -0.73570000      -0.93130000       1.15850000
H        0.97840000       0.32530000      -2.21430000
H        1.37810000       1.28650000      -0.75730000
H        3.84700000      -1.21330000       0.08730000
H        3.52480000       1.83450000      -0.02770000
H        4.81800000       0.95550000       0.79650000
H        4.66770000       0.85240000      -0.97100000
H        3.16620000      -0.37770000       2.25580000
H        0.92490000      -0.23980000       2.77970000
