16
Properties=species:S:1:pos:R:3 gdb_24224=T pbc="F F F"
C        0.02070000       1.45140000       0.01840000
C        1.27070000       0.65090000       0.04860000
C        1.98320000       0.36590000       1.39850000
C        0.88470000      -0.38540000       2.07950000
C       -0.19920000      -0.56970000       1.27650000
N       -1.20840000      -1.24010000       1.89970000
C       -0.72550000      -1.46820000       3.10790000
N        0.54310000      -0.96450000       3.27860000
N       -0.06460000      -0.02800000      -0.03560000
H       -0.30830000       1.93110000       0.93680000
H       -0.26480000       1.96000000      -0.89800000
H        1.87380000       0.59300000      -0.85120000
H        2.88930000      -0.23120000       1.23290000
H        2.29410000       1.28700000       1.90700000
H       -1.23670000      -1.99470000       3.89980000
H        1.10610000      -1.05360000       4.10750000
