16
Properties=species:S:1:pos:R:3 gdb_128775=T pbc="F F F"
C       -0.28540000       1.33240000       0.30700000
O       -0.31620000      -0.07630000       0.39270000
C        0.93270000      -0.62790000       0.79460000
C        0.76430000      -2.10190000       0.92160000
C       -0.32960000      -2.81700000       1.37110000
N       -1.52980000      -2.37870000       1.83810000
O       -0.06570000      -4.10540000       1.33340000
N        1.34350000      -4.20080000       0.80680000
N        1.71100000      -3.02620000       0.60190000
H        0.44720000       1.67260000      -0.43970000
H       -1.28080000       1.66310000       0.00250000
H       -0.03330000       1.79420000       1.27400000
H        1.71930000      -0.40880000       0.05750000
H        1.24160000      -0.16370000       1.74770000
H       -1.76600000      -1.45000000       1.51580000
H       -2.28220000      -3.05010000       1.82640000
