16
Properties=species:S:1:pos:R:3 gdb_73874=T pbc="F F F"
C        0.29300000       1.37710000      -0.17630000
C        0.13210000      -0.10190000      -0.14020000
C       -0.03560000      -0.97980000      -1.14950000
C       -0.10940000      -0.72880000      -2.60190000
O       -0.02360000       0.36520000      -3.11780000
C       -0.14680000      -2.33820000      -0.58790000
N       -0.31090000      -3.40980000      -1.23900000
O       -0.04100000      -2.24600000       0.77920000
C        0.13600000      -0.87930000       1.14820000
H        1.24330000       1.66890000       0.28850000
H        0.26320000       1.74530000      -1.20030000
H       -0.49920000       1.86140000       0.40850000
H       -0.25380000      -1.64530000      -3.20460000
H       -0.35670000      -4.21670000      -0.61630000
H        1.08120000      -0.76700000       1.69700000
H       -0.67750000      -0.57240000       1.81990000
