16
Properties=species:S:1:pos:R:3 gdb_125163=T pbc="F F F"
C        0.09180000       1.52110000       0.02890000
C       -0.08260000       0.04520000       0.06470000
C       -1.14210000      -0.80290000      -0.01390000
C       -2.58140000      -0.97270000      -0.15640000
C       -2.86690000      -2.28980000      -0.13790000
C       -1.62080000      -3.15490000       0.02250000
C       -0.55450000      -2.09660000       0.09410000
N        0.73890000      -2.07020000       0.22690000
O        1.04990000      -0.69470000       0.20880000
H        0.73770000       1.82150000      -0.80300000
H       -0.87630000       2.01170000      -0.08960000
H        0.55540000       1.88570000       0.95180000
H       -3.30350000      -0.17350000      -0.26030000
H       -3.85770000      -2.71740000      -0.22470000
H       -1.66010000      -3.77610000       0.92550000
H       -1.47940000      -3.83990000      -0.82220000
