17
Properties=species:S:1:pos:R:3 gdb_34993=T pbc="F F F"
N       -0.43830000      -1.16810000      -0.12110000
C       -0.20450000      -0.03530000      -0.06410000
C        0.00770000       1.38070000       0.00920000
C        0.48230000       2.08510000       1.27500000
C        1.27700000       1.27420000       2.30580000
C        2.65590000       1.05890000       1.66930000
C        2.81660000       0.15890000       0.50040000
N        2.66130000       1.61080000       0.29450000
C        1.34020000       2.15410000       0.04310000
H       -0.75880000       1.92160000      -0.54030000
H       -0.11640000       2.91970000       1.62170000
H        1.37560000       1.85680000       3.22520000
H        0.78310000       0.33350000       2.56970000
H        3.52640000       1.29480000       2.27590000
H        3.80720000      -0.21040000       0.24870000
H        2.01100000      -0.51150000       0.23230000
H        1.35290000       3.02790000      -0.59850000
