16
Properties=species:S:1:pos:R:3 gdb_8633=T pbc="F F F"
C       -0.09970000       1.55430000       0.09160000
C        0.01130000       0.03200000       0.00020000
C        0.74780000      -0.48850000      -1.27860000
C        2.22250000      -0.01060000      -1.34830000
C        0.72680000      -1.96330000      -1.25030000
N        0.73210000      -3.11610000      -1.18410000
C        0.02950000      -0.03120000      -2.48370000
N       -0.52710000       0.36920000      -3.41310000
H        0.87810000       2.03590000       0.17920000
H       -0.61080000       1.97040000      -0.78150000
H       -0.67880000       1.82460000       0.97870000
H        0.55520000      -0.36960000       0.86140000
H       -0.98600000      -0.41730000       0.01620000
H        2.74920000      -0.32890000      -0.44550000
H        2.72370000      -0.43830000      -2.21830000
H        2.26050000       1.07710000      -1.42350000
