18
Properties=species:S:1:pos:R:3 gdb_75452=T pbc="F F F"
C       -0.13010000       1.47850000       0.03220000
C       -0.01110000      -0.00870000      -0.05340000
C        0.05450000      -0.78360000      -1.13590000
C        0.13500000      -2.25370000      -0.81670000
C        0.43000000      -2.26520000       0.69930000
C        0.02640000      -0.86120000       1.21720000
O        0.99570000      -0.43980000       2.17180000
C       -1.31220000      -0.86140000       1.85360000
N       -2.35620000      -0.81990000       2.34950000
H        0.71290000       1.90840000       0.58670000
H       -0.14720000       1.93410000      -0.96050000
H       -1.04770000       1.77320000       0.55760000
H        0.02810000      -0.40920000      -2.15420000
H       -0.81240000      -2.75720000      -1.04970000
H        0.90870000      -2.77150000      -1.39380000
H       -0.06760000      -3.07040000       1.24130000
H        1.50450000      -2.34700000       0.88230000
H        0.67220000       0.35260000       2.61500000
