18
Properties=species:S:1:pos:R:3 gdb_122059=T pbc="F F F"
O       -0.07090000       1.43610000       0.01060000
C        0.01500000       0.02310000       0.00200000
C       -1.40870000      -0.52140000       0.01270000
C       -1.45020000      -2.05160000       0.00480000
N       -2.81420000      -2.59170000       0.01490000
C       -3.44770000      -2.81650000      -1.21540000
O       -4.56640000      -3.21170000      -1.38340000
C       -3.42410000      -2.82950000       1.25470000
O       -4.53940000      -3.22660000       1.43970000
H        0.82090000       1.79600000       0.00390000
H        0.54750000      -0.34280000      -0.89190000
H        0.56450000      -0.35250000       0.88150000
H       -1.92850000      -0.13980000       0.89900000
H       -1.94540000      -0.13030000      -0.85920000
H       -0.93710000      -2.44510000      -0.87880000
H       -0.92030000      -2.45470000       0.87400000
H       -2.75600000      -2.58230000      -2.05030000
H       -2.71660000      -2.60430000       2.07860000
