18
Properties=species:S:1:pos:R:3 gdb_45163=T pbc="F F F"
O        0.02040000       0.01360000      -0.42950000
C       -0.00940000       1.16970000      -0.07080000
C       -1.30840000       1.93310000       0.17950000
C       -1.00010000       3.36170000       0.64530000
C       -0.10620000       3.29810000       1.90330000
C        1.24620000       2.95790000       1.29510000
C        1.24060000       1.95080000       0.17420000
N        1.29530000       3.41560000      -0.09430000
C       -0.03590000       3.99810000      -0.37720000
H       -1.89230000       1.92540000      -0.74810000
H       -1.89280000       1.37630000       0.92110000
H       -1.91260000       3.94170000       0.79780000
H       -0.05070000       4.26980000       2.40580000
H       -0.45090000       2.56160000       2.63580000
H        2.15130000       3.06690000       1.88460000
H        2.15680000       1.42080000      -0.06530000
H       -0.32020000       3.80970000      -1.41700000
H        0.04890000       5.08070000      -0.23730000
