17
Properties=species:S:1:pos:R:3 gdb_69862=T pbc="F F F"
C       -0.03180000       1.55410000       0.13820000
C        0.01750000       0.05830000       0.05340000
C       -0.90030000      -0.89300000       0.76830000
C        0.58640000      -0.96770000       1.02700000
C        1.32250000      -1.65660000      -0.15560000
O        0.37940000      -2.07600000      -1.14220000
C        0.77610000      -0.68660000      -1.11740000
C        1.30610000      -0.08320000      -2.28740000
C        1.74010000       0.47470000      -3.26110000
H        0.95090000       1.99890000      -0.05260000
H       -0.73090000       1.97060000      -0.59630000
H       -0.36020000       1.87400000       1.13200000
H       -1.47150000      -0.43940000       1.57280000
H       -1.40320000      -1.69290000       0.23980000
H        1.03630000      -0.79910000       1.99630000
H        2.28370000      -2.15600000      -0.13380000
H        2.12820000       0.95430000      -4.12540000
