18
Properties=species:S:1:pos:R:3 gdb_71563=T pbc="F F F"
C       -0.06370000       1.53540000       0.07850000
C       -0.04550000       0.03340000       0.01070000
C       -1.32220000      -0.82400000      -0.02770000
C       -0.34980000      -1.90600000       0.50590000
N        0.44240000      -0.79530000       1.21080000
C        1.81940000      -0.81090000       0.59250000
C        1.11970000      -0.71040000      -0.78420000
C        0.48630000      -2.10030000      -0.76540000
O        0.59360000      -3.03650000      -1.50620000
H        0.93060000       1.94790000       0.27620000
H       -0.41640000       1.95270000      -0.87110000
H       -0.73690000       1.87160000       0.87320000
H       -2.02970000      -0.49370000       0.73650000
H       -1.83150000      -1.00850000      -0.97690000
H       -0.66180000      -2.77280000       1.08350000
H        2.36040000       0.08740000       0.89760000
H        2.43080000      -1.69500000       0.80110000
H        1.58680000      -0.36180000      -1.70370000
