19
Properties=species:S:1:pos:R:3 gdb_118937=T pbc="F F F"
C        0.35940000       0.77580000       0.39220000
O       -0.31930000       0.29550000      -0.76110000
C        0.44400000      -0.54520000      -1.59460000
C        0.46990000      -2.01100000      -1.12890000
N       -0.88870000      -2.45100000      -0.90730000
C        1.33770000      -2.91820000      -2.06970000
N        2.29120000      -3.04830000      -0.96550000
C        1.55290000      -2.35710000      -0.04120000
O        1.69860000      -2.16200000       1.13960000
H        0.63070000      -0.03190000       1.08070000
H        1.27210000       1.32150000       0.10960000
H       -0.32450000       1.46900000       0.88780000
H       -0.04730000      -0.51920000      -2.57400000
H        1.47210000      -0.16970000      -1.71050000
H       -0.92210000      -3.25830000      -0.29320000
H       -1.39740000      -1.69910000      -0.45030000
H        0.83210000      -3.84800000      -2.34570000
H        1.74490000      -2.43540000      -2.96480000
H        3.12590000      -3.60560000      -0.86390000
