19
Properties=species:S:1:pos:R:3 gdb_91719=T pbc="F F F"
C       -0.20630000       1.54160000       0.00160000
C        0.01710000       0.03330000       0.00760000
N        0.85060000      -0.41860000      -1.15130000
C        1.94500000      -1.22310000      -0.54340000
C        1.28920000      -1.87930000       0.69320000
C        0.83870000      -0.50240000       1.20170000
O        2.09270000       0.23300000       1.24000000
C        2.83100000      -0.21410000       0.16200000
N        3.99420000       0.15680000      -0.14290000
H        0.74720000       2.07220000       0.03900000
H       -0.72850000       1.84110000      -0.91130000
H       -0.81380000       1.84940000       0.86020000
H       -0.95740000      -0.47480000       0.01250000
H        0.30740000      -1.00990000      -1.77020000
H        2.46870000      -1.83880000      -1.26960000
H        0.46380000      -2.55000000       0.44330000
H        1.98850000      -2.37270000       1.37230000
H        0.36790000      -0.42530000       2.18020000
H        4.33320000       0.85850000       0.51890000
