18
Properties=species:S:1:pos:R:3 gdb_55344=T pbc="F F F"
N        0.87500000       0.05150000       0.75250000
C        0.13650000      -0.00660000      -0.39420000
O        0.45910000       0.56540000      -1.41940000
C       -1.19520000      -0.76560000      -0.26770000
C       -1.89430000      -0.94420000      -1.63980000
C       -1.37520000      -2.40650000      -1.70830000
C       -1.14130000      -2.33300000      -0.17360000
C       -0.03190000      -3.11890000       0.46120000
O        0.65860000      -2.75700000       1.38600000
H        1.79510000       0.45440000       0.65230000
H        0.77820000      -0.70280000       1.42030000
H       -1.77620000      -0.28750000       0.52520000
H       -2.98240000      -0.89880000      -1.55310000
H       -1.54830000      -0.26150000      -2.41410000
H       -2.05240000      -3.17930000      -2.07680000
H       -0.43080000      -2.46810000      -2.25680000
H       -2.05260000      -2.67850000       0.33720000
H        0.10220000      -4.13720000       0.03020000
