18
Properties=species:S:1:pos:R:3 gdb_63301=T pbc="F F F"
C        0.18450000       1.41410000      -0.10380000
C       -0.04920000      -0.07190000       0.09710000
C       -1.51390000      -0.46290000       0.02260000
O        0.73320000      -0.83760000      -0.91780000
C        1.50830000      -1.43230000       0.04090000
N        2.48900000      -2.21040000      -0.03970000
C        0.77710000      -0.79310000       1.20350000
C        1.61000000      -0.04510000       2.21960000
O        1.34930000       1.04870000       2.64960000
H        1.25010000       1.65200000      -0.11190000
H       -0.24720000       1.72370000      -1.06040000
H       -0.28170000       1.98660000       0.70090000
H       -1.94680000      -0.14050000      -0.92900000
H       -1.63660000      -1.54620000       0.10750000
H       -2.07290000       0.01640000       0.83270000
H        2.72350000      -2.41920000      -1.01170000
H        0.19170000      -1.53690000       1.75890000
H        2.49870000      -0.61500000       2.56490000
