20
Properties=species:S:1:pos:R:3 gdb_91579=T pbc="F F F"
C       -0.14890000       1.58650000      -0.16140000
C        0.05760000       0.07780000      -0.16220000
C        1.30020000      -0.54350000      -0.89840000
C        1.67850000      -1.28760000       0.38880000
C        1.94260000      -0.28770000       1.49300000
C        0.52690000      -0.62430000       1.11930000
O       -0.35870000      -1.22100000       2.01600000
C       -0.68720000      -0.50930000       3.12000000
N       -1.55310000      -0.95860000       3.91910000
H        0.74270000       2.11660000       0.19010000
H       -0.37360000       1.95080000      -1.16960000
H       -0.98630000       1.87050000       0.48570000
H       -0.85000000      -0.42380000      -0.51210000
H        1.02030000      -1.19710000      -1.72650000
H        2.04620000       0.17570000      -1.25270000
H        2.02840000      -2.30940000       0.45880000
H        2.27020000      -0.72940000       2.42880000
H        2.38050000       0.68390000       1.27560000
H       -0.12600000       0.42900000       3.21070000
H       -1.67170000      -0.31330000       4.69750000
