14
Properties=species:S:1:pos:R:3 gdb_15038=T pbc="F F F"
O        0.10690000       0.57500000       0.79370000
C        0.72020000       0.95020000      -0.16980000
C        1.49280000       2.26790000      -0.21360000
C        1.15690000       3.00470000      -1.51510000
O        1.23410000       2.48440000      -2.59690000
C        1.27410000       3.11440000       1.01670000
C        2.26650000       3.20230000       2.09060000
O        2.13020000       4.25530000       1.13310000
H        0.76520000       0.37010000      -1.11290000
H        2.55520000       1.99730000      -0.30690000
H        0.82700000       4.05710000      -1.38980000
H        0.23160000       3.30410000       1.26970000
H        1.94400000       3.44410000       3.10120000
H        3.18590000       2.62250000       2.02130000
