17
Properties=species:S:1:pos:R:3 gdb_8691=T pbc="F F F"
C       -0.08840000       1.37630000       0.06740000
O        0.04230000      -0.03420000      -0.01630000
C        0.73270000      -0.54270000      -1.13920000
C        2.19450000      -0.08300000      -1.23240000
C        0.65330000      -2.08460000      -0.97580000
O        1.22440000      -2.77710000      -2.06020000
C        0.01540000      -0.19280000      -2.39510000
N       -0.55130000       0.04010000      -3.37570000
H        0.87930000       1.87350000       0.20870000
H       -0.57740000       1.79000000      -0.82450000
H       -0.71570000       1.57170000       0.93910000
H        2.67150000      -0.23950000      -0.26040000
H        2.71070000      -0.68600000      -1.98230000
H        2.28230000       0.96960000      -1.50860000
H        1.22880000      -2.34930000      -0.08450000
H       -0.39570000      -2.35450000      -0.80080000
H        0.64190000      -2.67960000      -2.82210000
