21
Properties=species:S:1:pos:R:3 gdb_77479=T pbc="F F F"
C       -0.10140000       1.54070000      -0.00660000
C        0.18090000       0.05160000       0.04190000
O        1.34610000      -0.37640000      -0.73950000
C        1.80160000      -1.19930000       0.35690000
C        2.31210000      -2.56360000       0.02620000
C        2.20960000      -0.27220000       1.44940000
O        2.78190000       0.97310000       1.18500000
C        0.73030000      -0.62320000       1.29790000
C       -0.10530000      -1.23690000       2.38310000
H        0.71410000       2.11860000       0.43050000
H       -0.26120000       1.86230000      -1.04120000
H       -1.01730000       1.75760000       0.55410000
H       -0.69020000      -0.50550000      -0.33190000
H        3.21010000      -2.49810000      -0.59900000
H        2.57780000      -3.10320000       0.94000000
H        1.56240000      -3.14660000      -0.51850000
H        2.66520000      -0.74320000       2.31760000
H        2.73020000       1.08050000       0.22490000
H       -0.56900000      -0.46600000       3.01040000
H       -0.90870000      -1.85960000       1.97190000
H        0.49990000      -1.86940000       3.04070000
