15
Properties=species:S:1:pos:R:3 gdb_129356=T pbc="F F F"
N       -0.04030000       1.28890000       0.00750000
C       -0.02030000       0.02800000       0.00230000
O       -1.17960000      -0.66010000       0.00770000
C       -1.06890000      -2.08240000       0.00080000
C       -2.45380000      -2.63740000       0.00990000
C       -3.65740000      -1.97590000       0.02270000
N       -4.56670000      -2.97900000       0.02600000
N       -3.97690000      -4.18710000       0.01590000
N       -2.69140000      -3.97910000       0.00620000
H        0.91000000       1.65310000       0.00230000
H        0.87170000      -0.61360000      -0.00670000
H       -0.52560000      -2.42190000      -0.89160000
H       -0.51100000      -2.42940000       0.88120000
H       -3.91630000      -0.93210000       0.02930000
H       -5.57260000      -2.92210000       0.03450000
