17
Properties=species:S:1:pos:R:3 gdb_105320=T pbc="F F F"
C        0.11290000       1.42200000      -0.09220000
N       -0.03700000      -0.01040000       0.14670000
C       -1.37830000      -0.52220000       0.02820000
C       -2.13910000      -0.54210000      -1.39060000
C       -2.11740000      -2.06730000      -1.31110000
O       -0.73990000      -2.46330000      -1.18360000
C       -1.44210000      -2.07280000      -0.00700000
C       -2.24700000       0.03110000       1.07010000
N       -2.95320000       0.45470000       1.88110000
H        1.17130000       1.68300000      -0.01630000
H       -0.25660000       1.75650000      -1.07610000
H       -0.42630000       1.98140000       0.67840000
H        0.54510000      -0.54750000      -0.48760000
H       -3.13900000      -0.10840000      -1.34020000
H       -1.57890000      -0.10850000      -2.22160000
H       -2.79920000      -2.78840000      -1.74320000
H       -1.46130000      -2.75480000       0.83400000
