18
Properties=species:S:1:pos:R:3 gdb_16415=T pbc="F F F"
O        0.13490000       1.39040000      -0.18890000
C        0.02440000      -0.02340000      -0.02630000
C        0.75880000      -0.50580000       1.20690000
C        0.09700000      -1.21670000       2.12210000
C       -1.36270000      -1.52840000       1.87170000
C       -1.50740000      -2.00200000       0.38930000
C       -1.44320000      -0.49160000       0.01800000
C       -2.06600000      -0.21240000       1.41700000
H       -0.15500000       1.79620000       0.63560000
H        0.49850000      -0.43150000      -0.92880000
H        1.80460000      -0.23290000       1.31170000
H        0.57570000      -1.57920000       3.02700000
H       -1.81690000      -2.12410000       2.66460000
H       -0.73120000      -2.66530000      -0.00120000
H       -2.49480000      -2.42490000       0.18300000
H       -1.97640000      -0.14120000      -0.86830000
H       -3.15400000      -0.31550000       1.39270000
H       -1.79960000       0.70890000       1.94380000
