17
Properties=species:S:1:pos:R:3 gdb_36329=T pbc="F F F"
C       -0.28030000      -1.04350000       0.57460000
C       -0.21620000       0.13930000       0.36950000
C       -0.07490000       1.56890000       0.12390000
C        1.29040000       1.91470000      -0.50430000
C        1.67030000       3.41510000      -0.39620000
C        2.59240000       2.98470000       0.78540000
N        2.47230000       1.58720000       0.32360000
C        3.95590000       3.51770000       0.81390000
N        5.02410000       3.95790000       0.83970000
H       -0.35890000      -2.08810000       0.75020000
H       -0.87240000       1.91930000      -0.54420000
H       -0.19940000       2.11690000       1.06780000
H        1.34180000       1.47480000      -1.50520000
H        2.23430000       3.78120000      -1.25340000
H        0.87200000       4.11640000      -0.15150000
H        2.13040000       3.19290000       1.76020000
H        2.33940000       0.87980000       1.03910000
