16
Properties=species:S:1:pos:R:3 gdb_45510=T pbc="F F F"
O        0.12620000       0.02840000      -0.27960000
C       -0.03080000       1.18190000      -0.04660000
C       -1.32610000       2.00830000      -0.01610000
C       -0.80780000       3.44550000      -0.10060000
C       -1.27450000       4.62940000       0.75900000
C        0.09260000       5.29590000       1.12380000
N        1.10720000       4.21290000       1.12100000
C        0.57700000       3.27480000       0.46900000
O        1.04890000       2.00990000       0.28880000
H       -1.99180000       1.68400000      -0.81600000
H       -1.82190000       1.80430000       0.94080000
H       -0.72430000       3.74130000      -1.15520000
H       -1.96220000       5.30710000       0.24960000
H       -1.76340000       4.26860000       1.67060000
H        0.37630000       6.06490000       0.39370000
H        0.07760000       5.77460000       2.10620000
