15
Properties=species:S:1:pos:R:3 gdb_28243=T pbc="F F F"
N        0.07380000       1.30250000      -0.17050000
C       -0.05260000      -0.05720000      -0.05580000
N       -1.14870000      -0.75990000      -0.01870000
C       -0.66140000      -2.06250000       0.00590000
C        0.67240000      -2.06550000      -0.00820000
C        1.25870000      -3.42740000       0.04260000
O        0.07040000      -4.24310000       0.07830000
C       -1.15370000      -3.46840000       0.06310000
O        1.11980000      -0.76790000      -0.04930000
H        0.90840000       1.68900000       0.24570000
H       -0.77020000       1.79690000       0.07840000
H        1.86010000      -3.69630000      -0.83830000
H        1.86780000      -3.62600000       0.93730000
H       -1.73540000      -3.69790000       0.96660000
H       -1.75360000      -3.76480000      -0.80820000
