21
Properties=species:S:1:pos:R:3 gdb_108677=T pbc="F F F"
C        0.42950000       1.07890000       0.55100000
C        0.12640000      -0.30400000      -0.05550000
C       -1.33640000      -0.63280000      -0.10450000
C       -2.12920000      -0.84930000      -1.15920000
C       -1.81100000      -0.80530000      -2.62070000
O       -2.64240000       0.11570000      -3.32720000
C       -3.52270000      -1.17560000      -0.68350000
O       -3.48170000      -1.06260000       0.73480000
C       -2.14960000      -0.80890000       1.15680000
H        1.50710000       1.26770000       0.55730000
H       -0.05100000       1.87410000      -0.02760000
H        0.07240000       1.15520000       1.58230000
H        0.55690000      -0.36060000      -1.06030000
H        0.64360000      -1.06970000       0.53990000
H       -0.74620000      -0.58730000      -2.78400000
H       -2.01550000      -1.77850000      -3.08420000
H       -2.51610000       0.98090000      -2.92320000
H       -4.27800000      -0.48890000      -1.09020000
H       -3.82390000      -2.19520000      -0.98060000
H       -1.76880000      -1.64780000       1.76600000
H       -2.13550000       0.08290000       1.80220000
