19
Properties=species:S:1:pos:R:3 gdb_49251=T pbc="F F F"
O       -0.01870000      -0.04650000       0.61200000
C        0.02850000       1.15980000       0.52880000
C        1.18740000       1.93310000       0.02730000
C        1.04590000       3.26720000       0.02410000
C        1.98650000       4.33930000      -0.43220000
C        3.45710000       4.07670000      -0.61170000
C        4.18560000       2.98870000      -0.36460000
C        3.73430000       1.63650000       0.12450000
C        2.38760000       1.14790000      -0.43230000
H       -0.83610000       1.78830000       0.84150000
H        0.08770000       3.65330000       0.37530000
H        1.58140000       4.74530000      -1.37600000
H        1.88420000       5.18860000       0.26210000
H        3.98990000       4.95640000      -0.96990000
H        5.25670000       3.07670000      -0.53680000
H        4.50150000       0.90060000      -0.14180000
H        3.69260000       1.63130000       1.22260000
H        2.22490000       0.10610000      -0.14170000
H        2.43340000       1.16180000      -1.52850000
