27
Properties=species:S:1:pos:R:3 gdb_60447=T pbc="F F F"
C       -0.07310000       1.51640000      -0.13440000
C        0.02430000      -0.00260000       0.06280000
C        0.79700000      -0.32870000       1.34990000
C       -1.37870000      -0.63360000       0.03790000
C       -1.39350000      -2.15870000       0.03230000
O       -2.73370000      -2.57930000      -0.12320000
C       -2.92110000      -3.98030000      -0.28310000
C       -2.76190000      -4.73700000       1.04000000
C       -4.31290000      -4.16270000      -0.87980000
H        0.92000000       1.97720000      -0.16150000
H       -0.58610000       1.76570000      -1.06910000
H       -0.63230000       1.98190000       0.68610000
H        0.59220000      -0.41390000      -0.78500000
H        0.25130000       0.02900000       2.23160000
H        0.96130000      -1.40310000       1.47370000
H        1.77900000       0.15610000       1.34940000
H       -1.96040000      -0.27810000       0.89860000
H       -1.91430000      -0.29630000      -0.85740000
H       -0.77640000      -2.54200000      -0.80020000
H       -0.96080000      -2.55590000       0.96260000
H       -2.17170000      -4.35860000      -1.00020000
H       -1.75950000      -4.61680000       1.46040000
H       -3.48800000      -4.37110000       1.77340000
H       -2.93120000      -5.80830000       0.89070000
H       -4.39800000      -3.61650000      -1.82290000
H       -4.52040000      -5.22060000      -1.06630000
H       -5.07250000      -3.77700000      -0.19220000
