23
Properties=species:S:1:pos:R:3 gdb_13715=T pbc="F F F"
C        0.03550000       1.49880000       0.24460000
C       -0.01160000       0.02750000      -0.17600000
C       -1.37220000      -0.62930000       0.07880000
C       -1.42440000      -2.10400000      -0.34480000
C       -2.78750000      -2.73640000      -0.14330000
C       -2.94700000      -4.20910000       0.03030000
N       -3.25460000      -3.30010000       1.12840000
C       -2.37660000      -3.32800000       2.28730000
H        1.01920000       1.93890000       0.05330000
H       -0.70630000       2.09110000      -0.30290000
H       -0.17770000       1.61190000       1.31340000
H        0.23730000      -0.05800000      -1.24230000
H        0.76620000      -0.53230000       0.36060000
H       -1.62380000      -0.54460000       1.14430000
H       -2.15220000      -0.07200000      -0.45860000
H       -1.16980000      -2.18160000      -1.41100000
H       -0.65230000      -2.67160000       0.18710000
H       -3.58410000      -2.20870000      -0.66950000
H       -3.78830000      -4.74250000      -0.40560000
H       -2.02900000      -4.79410000       0.09860000
H       -1.31800000      -3.53220000       2.06250000
H       -2.43700000      -2.37060000       2.81550000
H       -2.72710000      -4.10980000       2.96930000
