16
Properties=species:S:1:pos:R:3 gdb_46072=T pbc="F F F"
O        0.21320000       0.01430000      -0.27750000
C        0.06420000       1.19010000      -0.10640000
N       -1.08910000       1.85900000       0.26250000
C       -0.96400000       3.29130000       0.06790000
C        0.57670000       3.40950000       0.12500000
O        1.06420000       2.11400000      -0.24350000
C       -1.54510000       3.76400000      -1.25090000
C       -2.88420000       4.36060000      -1.33230000
O       -1.71010000       5.17510000      -1.37360000
H       -1.96340000       1.37490000       0.13540000
H       -1.42820000       3.86050000       0.87970000
H        0.97090000       4.14960000      -0.57380000
H        0.92000000       3.64690000       1.13720000
H       -1.13860000       3.27270000      -2.13730000
H       -3.44580000       4.30190000      -2.26280000
H       -3.48620000       4.45790000      -0.42930000
