18
Properties=species:S:1:pos:R:3 gdb_38634=T pbc="F F F"
C       -0.01880000       1.43310000       0.04800000
C        1.53020000       1.81190000      -0.10190000
C        1.93460000       0.36440000      -0.17430000
O        3.02290000      -0.47600000      -0.57170000
C        1.94590000      -1.49640000      -0.72290000
C        1.53160000      -1.79830000       0.72150000
C        1.09830000      -0.35630000       0.97360000
N       -0.08830000      -0.08620000       0.07440000
C        0.91260000      -0.36030000      -1.02870000
H       -0.44990000       1.81710000       0.97480000
H       -0.60730000       1.80730000      -0.79230000
H        1.73500000       2.37900000      -1.01270000
H        1.91360000       2.36210000       0.76060000
H        2.21280000      -2.28670000      -1.42100000
H        0.71160000      -2.51590000       0.80340000
H        2.37890000      -2.11020000       1.33540000
H        1.03000000       0.02600000       1.99180000
H        0.66560000      -0.08950000      -2.05380000
