14
Properties=species:S:1:pos:R:3 gdb_132031=T pbc="F F F"
O        0.37510000       1.31800000       0.00460000
C        0.20540000      -0.02080000       0.00230000
C       -0.99410000      -0.64720000      -0.05470000
F       -2.08090000       0.14670000      -0.11230000
C       -1.14760000      -2.08950000      -0.05540000
N       -2.31980000      -2.62580000      -0.11130000
C        0.14840000      -2.77350000       0.01230000
C        1.32300000      -2.11180000       0.06770000
N        1.37080000      -0.73800000       0.06380000
H       -0.50500000       1.71470000      -0.04090000
H       -2.23330000      -3.64350000      -0.10210000
H        0.15350000      -3.85740000       0.01770000
H        2.28330000      -2.60860000       0.11780000
H        2.23990000      -0.23300000       0.10400000
