20
Properties=species:S:1:pos:R:3 gdb_22912=T pbc="F F F"
C       -0.27400000       1.44450000      -0.06560000
C        0.08380000      -0.02420000       0.06120000
O        0.90860000      -0.39530000      -1.04890000
C        1.47890000      -1.65940000      -0.75260000
C        1.53540000      -1.72230000       0.75760000
N        2.00850000      -2.64480000       1.49040000
O        2.54950000      -3.67850000       0.69800000
C        0.89280000      -0.46730000       1.30850000
C        1.95700000       0.54150000       1.77120000
H        0.62130000       2.07070000      -0.07400000
H       -0.81760000       1.61440000      -0.99890000
H       -0.91390000       1.75680000       0.76560000
H       -0.84320000      -0.62360000       0.03260000
H        0.86630000      -2.48930000      -1.14130000
H        2.46690000      -1.73180000      -1.21770000
H        2.85700000      -4.30530000       1.36110000
H        0.22960000      -0.70690000       2.14440000
H        2.61230000       0.82990000       0.94350000
H        1.49580000       1.44780000       2.17480000
H        2.57540000       0.09330000       2.55310000
