25
Properties=species:S:1:pos:R:3 gdb_57395=T pbc="F F F"
C       -0.13610000       1.54100000       0.01950000
C       -0.00630000       0.00840000      -0.00760000
C        0.69450000      -0.45680000       1.28910000
C       -1.42510000      -0.60570000      -0.05960000
C        0.79040000      -0.45960000      -1.21170000
C        1.28780000       0.28420000      -2.20500000
C        2.05710000      -0.52380000      -3.22220000
C        1.65400000      -1.97790000      -2.87860000
C        1.17500000      -1.92130000      -1.40950000
H        0.84490000       2.02380000       0.07010000
H       -0.65240000       1.91430000      -0.87050000
H       -0.71190000       1.85680000       0.89580000
H        0.12880000      -0.12830000       2.16780000
H        0.77580000      -1.54700000       1.33540000
H        1.70430000      -0.03960000       1.36160000
H       -1.95280000      -0.29400000      -0.96650000
H       -1.39520000      -1.69920000      -0.04550000
H       -2.01390000      -0.28000000       0.80510000
H        1.19960000       1.36160000      -2.28070000
H        1.81650000      -0.25360000      -4.25700000
H        3.13950000      -0.36190000      -3.10930000
H        0.81930000      -2.28120000      -3.51910000
H        2.46180000      -2.69730000      -3.03660000
H        1.98110000      -2.19770000      -0.71480000
H        0.35410000      -2.61950000      -1.21320000
