20
Properties=species:S:1:pos:R:3 gdb_116347=T pbc="F F F"
O        0.02760000       1.39330000      -0.04010000
C        0.03520000      -0.01770000       0.04170000
C       -1.38320000      -0.58250000       0.04330000
O       -1.98880000      -0.09260000      -1.14790000
C       -3.30330000      -0.58420000      -1.34550000
C       -3.29620000      -2.07950000      -1.68210000
C       -2.38790000      -2.84610000      -0.72960000
N       -0.95010000      -2.82800000      -1.05940000
C       -1.42380000      -2.09600000       0.12400000
H       -0.56170000       1.60480000      -0.77400000
H        0.58660000      -0.47600000      -0.79210000
H        0.54070000      -0.28480000       0.97610000
H       -1.93000000      -0.17680000       0.91320000
H       -3.90790000      -0.40240000      -0.44120000
H       -3.73460000       0.00250000      -2.16140000
H       -4.31970000      -2.46620000      -1.62350000
H       -2.94310000      -2.22780000      -2.70730000
H       -2.78870000      -3.77180000      -0.32400000
H       -0.51250000      -3.70080000      -0.77730000
H       -1.19170000      -2.49930000       1.10810000
