23
Properties=species:S:1:pos:R:3 gdb_71592=T pbc="F F F"
C        0.02400000       1.50990000      -0.05430000
C        0.03300000       0.00310000      -0.04380000
C        0.66980000      -0.95220000      -1.08700000
C        0.04260000      -1.88340000      -0.02460000
C        0.58830000      -0.93380000       1.08570000
C       -0.37350000      -0.92580000       2.27070000
C       -1.71940000      -0.94390000       1.50220000
C       -1.22220000      -0.95640000       0.04820000
C       -2.29440000      -0.97280000      -1.02120000
H        1.04380000       1.91050000      -0.07430000
H       -0.50220000       1.89740000      -0.93420000
H       -0.47420000       1.91300000       0.83500000
H        0.24040000      -0.96420000      -2.09210000
H        1.76310000      -0.94600000      -1.14120000
H        0.04850000      -2.97580000      -0.00570000
H        1.66350000      -0.92620000       1.28000000
H       -0.24140000      -1.79920000       2.91740000
H       -0.25280000      -0.03600000       2.89770000
H       -2.32700000      -1.82720000       1.72820000
H       -2.34130000      -0.06560000       1.71020000
H       -2.94010000      -0.09050000      -0.93710000
H       -1.88500000      -0.98760000      -2.03510000
H       -2.93700000      -1.85430000      -0.91120000
