16
Properties=species:S:1:pos:R:3 gdb_123814=T pbc="F F F"
C       -0.36500000       1.09530000      -0.17190000
C        1.10090000       1.05650000       0.21900000
C        0.35020000      -0.21210000      -0.00770000
O        0.09900000      -0.97600000       1.15220000
C       -0.90420000      -1.86400000       1.07090000
N       -1.63430000      -2.08930000      -0.01800000
N       -2.47010000      -3.04880000       0.39310000
N       -2.33980000      -3.45570000       1.64390000
C       -1.33780000      -2.71170000       2.10990000
H       -1.07450000       1.36660000       0.60110000
H       -0.63920000       1.40730000      -1.17320000
H        1.85110000       1.34620000      -0.50770000
H        1.34450000       1.29930000       1.24700000
H        0.55350000      -0.81750000      -0.88530000
H       -3.16660000      -3.43480000      -0.22160000
H       -0.97880000      -2.80460000       3.12080000
