23
Properties=species:S:1:pos:R:3 gdb_111497=T pbc="F F F"
C       -0.08180000       1.53560000      -0.08800000
C        0.00410000       0.00650000      -0.04840000
C        0.77610000      -0.53930000       1.15880000
C        0.77230000      -2.05980000       1.29430000
C        1.68890000      -2.86190000       0.40220000
C        2.12550000      -2.50220000       1.80340000
C        2.98030000      -1.25940000       2.00820000
C        2.28240000      -0.12160000       1.22410000
O        2.87460000       0.12510000      -0.05070000
H        0.91090000       1.97880000      -0.20470000
H       -0.69880000       1.87290000      -0.92700000
H       -0.52780000       1.93410000       0.83090000
H       -1.00770000      -0.41840000      -0.03060000
H        0.47620000      -0.35380000      -0.96820000
H        0.30590000      -0.13920000       2.06970000
H       -0.14060000      -2.53470000       1.63870000
H        1.42300000      -3.89870000       0.22420000
H        2.14590000      -2.39100000      -0.46260000
H        2.21710000      -3.30930000       2.52210000
H        3.00510000      -1.01430000       3.07650000
H        4.02170000      -1.36760000       1.68380000
H        2.38340000       0.83240000       1.74820000
H        3.14590000      -0.71200000      -0.43640000
