17
Properties=species:S:1:pos:R:3 gdb_71316=T pbc="F F F"
O        0.02670000       1.33830000       0.18520000
C        0.10390000      -0.03460000       0.12160000
C        0.80110000      -1.01420000       1.09060000
C        0.08560000      -1.90640000       0.05630000
C       -1.14990000      -0.94710000      -0.04060000
C       -1.08540000      -0.93080000      -1.59380000
C       -1.60290000       0.20280000      -2.33320000
C       -2.04460000       1.11940000      -2.97470000
C        0.39880000      -0.94520000      -1.13580000
H        0.90260000       1.70610000       0.02520000
H        1.89630000      -1.03240000       1.07940000
H        0.42020000      -1.04390000       2.11610000
H        0.04830000      -2.99140000      -0.00440000
H       -2.03000000      -0.95330000       0.60290000
H       -1.41210000      -1.86970000      -2.05620000
H       -2.43110000       1.94070000      -3.52510000
H        1.29900000      -0.94550000      -1.75240000
