11
Properties=species:S:1:pos:R:3 gdb_130610=T pbc="F F F"
O       -0.06310000      -0.06690000       0.00420000
C       -0.01800000       1.14880000       0.01080000
C       -1.24310000       1.98430000       0.03080000
N       -1.31210000       3.26710000       0.03790000
O       -0.11110000       3.96930000       0.02460000
C        1.06540000       3.30220000       0.00500000
C        1.18970000       1.95740000      -0.00300000
C        2.18250000       4.19820000      -0.00670000
N        3.09850000       4.90350000      -0.01640000
H       -2.20710000       1.48230000       0.04160000
H        2.16550000       1.49050000      -0.01910000
