19
Properties=species:S:1:pos:R:3 gdb_78437=T pbc="F F F"
C       -0.03850000       1.47820000       0.00720000
C       -0.00600000      -0.03410000       0.00780000
C        1.31180000      -0.72880000      -0.26190000
C        0.70870000      -0.74120000       1.13960000
C        0.48050000      -2.24960000       1.34650000
C        1.83130000      -2.83520000       0.77360000
C        1.31480000      -2.23240000      -0.59230000
C       -0.04500000      -2.68450000      -0.03250000
O       -0.98080000      -3.30560000      -0.44070000
H        0.89110000       1.89380000       0.41120000
H       -0.16440000       1.87000000      -1.00770000
H       -0.86480000       1.85560000       0.61890000
H       -0.90750000      -0.49990000      -0.38430000
H        2.18610000      -0.13710000      -0.50980000
H        1.12600000      -0.15900000       1.95380000
H        0.03200000      -2.59540000       2.27540000
H        2.74510000      -2.38900000       1.17080000
H        1.88370000      -3.92660000       0.78650000
H        1.68320000      -2.56140000      -1.56170000
