25
Properties=species:S:1:pos:R:3 gdb_122630=T pbc="F F F"
C       -0.09780000       1.62170000       0.02850000
C       -0.07870000       0.09080000       0.03500000
C        0.72070000      -0.49800000       1.20250000
C        0.74690000      -2.03160000       1.21070000
C        1.52590000      -2.60360000       2.39180000
C        0.80640000      -2.57820000       3.75930000
O        0.70250000      -4.01450000       3.78920000
C        1.52630000      -4.14650000       2.60520000
C        0.91800000      -5.07960000       1.57690000
H        0.91640000       2.03010000      -0.04540000
H       -0.67530000       2.01110000      -0.81560000
H       -0.54510000       2.01590000       0.94780000
H       -1.10830000      -0.28880000       0.07470000
H        0.34160000      -0.27540000      -0.91110000
H        1.75120000      -0.11750000       1.16650000
H        0.29820000      -0.13330000       2.14930000
H       -0.28370000      -2.40920000       1.22890000
H        1.18870000      -2.39030000       0.27130000
H        2.53030000      -2.16950000       2.41130000
H        1.40210000      -2.19160000       4.59700000
H       -0.18010000      -2.09660000       3.77690000
H        2.52520000      -4.51610000       2.88280000
H       -0.07460000      -4.74580000       1.26450000
H        1.56000000      -5.15240000       0.69210000
H        0.81910000      -6.08200000       2.00570000
