21
Properties=species:S:1:pos:R:3 gdb_86818=T pbc="F F F"
C       -0.09910000       1.52500000      -0.10700000
N       -0.05760000       0.09540000       0.09330000
C       -1.23940000      -0.57580000       0.66220000
C       -0.27660000      -1.53290000       1.41270000
C        0.80150000      -0.44680000       1.16050000
N       -0.58130000      -1.91310000       2.76290000
C       -0.61170000      -3.21690000       3.18550000
C       -0.97570000      -3.40990000       4.64990000
O       -0.37530000      -4.15670000       2.44970000
H        0.87620000       1.88050000      -0.45600000
H       -0.83990000       1.77190000      -0.87490000
H       -0.35900000       2.08610000       0.81230000
H       -1.80170000       0.05960000       1.37150000
H       -1.93920000      -0.99880000      -0.06590000
H       -0.08390000      -2.45110000       0.86060000
H        1.80220000      -0.76210000       0.84760000
H        0.89530000       0.23020000       2.02990000
H       -0.78920000      -1.18500000       3.42690000
H       -1.93600000      -3.93060000       4.70800000
H       -0.22650000      -4.05560000       5.11380000
H       -1.04590000      -2.47700000       5.21560000
