16
Properties=species:S:1:pos:R:3 gdb_10059=T pbc="F F F"
O        0.07240000       1.38180000       0.26430000
C       -0.01080000      -0.00330000       0.00130000
C       -1.45710000      -0.53240000       0.01080000
C       -1.46030000      -2.07380000      -0.13370000
C       -2.79660000      -2.63720000      -0.27290000
C       -3.90870000      -3.07810000      -0.38300000
C       -2.13450000      -0.10980000       1.30380000
O       -3.04620000       0.66840000       1.37940000
H       -0.47840000       1.84740000      -0.37410000
H        0.46230000      -0.27190000      -0.95670000
H        0.56880000      -0.49050000       0.79460000
H       -2.02130000      -0.08440000      -0.81490000
H       -0.84840000      -2.34950000      -1.00190000
H       -0.96220000      -2.51720000       0.73960000
H       -4.89040000      -3.47190000      -0.47810000
H       -1.69800000      -0.58360000       2.21570000
