17
Properties=species:S:1:pos:R:3 gdb_84639=T pbc="F F F"
C       -0.69710000       1.29260000       0.03080000
C        0.03950000      -0.05740000      -0.04480000
N        0.69180000      -0.18240000      -1.34590000
C        1.94150000      -0.35860000      -1.43270000
N        2.90080000      -0.55250000      -0.39990000
C        3.22060000       0.65860000       0.36690000
C        2.38600000      -0.42790000       0.97160000
C        0.91720000      -0.26000000       1.19150000
O        0.44060000      -0.34920000       2.30060000
H        0.00940000       2.12740000      -0.01950000
H       -1.38750000       1.38110000      -0.81060000
H       -1.25100000       1.35800000       0.96950000
H       -0.72550000      -0.84390000       0.01170000
H        2.39750000      -0.39640000      -2.42260000
H        4.25250000       0.75720000       0.68870000
H        2.73010000       1.58190000       0.07150000
H        2.86500000      -1.07690000       1.69950000
