18
Properties=species:S:1:pos:R:3 gdb_41885=T pbc="F F F"
C        0.13960000       1.57490000       0.20990000
O        1.48490000       1.51820000      -0.30930000
C        1.36030000       0.10780000      -0.60370000
C        2.41280000      -0.77570000       0.03140000
C        1.98510000      -2.25030000      -0.04420000
N        0.93200000      -2.68210000       0.86280000
C        0.07740000      -1.93370000       1.40300000
O       -0.17130000      -0.59000000       1.29320000
C       -0.04420000       0.06080000       0.03500000
H        0.10160000       1.91340000       1.25050000
H       -0.51590000       2.19950000      -0.40850000
H        1.32970000      -0.05770000      -1.69060000
H        3.37120000      -0.63860000      -0.48230000
H        2.55960000      -0.48160000       1.07540000
H        1.68370000      -2.50450000      -1.07130000
H        2.85100000      -2.88760000       0.16690000
H       -0.60390000      -2.35390000       2.14370000
H       -0.85840000      -0.26510000      -0.61910000
