20
Properties=species:S:1:pos:R:3 gdb_22668=T pbc="F F F"
C       -0.00600000       1.60620000      -0.12710000
C        0.00930000       0.07670000      -0.05470000
C       -1.38420000      -0.56300000       0.09940000
C       -1.35420000      -2.11890000       0.06850000
C       -2.14370000      -2.55150000       1.29230000
C       -2.48130000      -1.35550000       2.06200000
C       -2.06860000      -0.25810000       1.41400000
N       -2.41810000      -3.77990000       1.51670000
O       -3.15090000      -3.93310000       2.71100000
H        1.00330000       2.00110000      -0.27760000
H       -0.62720000       1.95680000      -0.95900000
H       -0.39870000       2.05390000       0.79150000
H        0.46890000      -0.32310000      -0.96730000
H        0.64370000      -0.25190000       0.77870000
H       -2.01080000      -0.18300000      -0.72150000
H       -1.77730000      -2.53240000      -0.85020000
H       -0.32370000      -2.48440000       0.13710000
H       -3.00470000      -1.39230000       3.00660000
H       -2.21330000       0.75670000       1.76840000
H       -3.28180000      -4.88600000       2.74300000
