23
Properties=species:S:1:pos:R:3 gdb_60275=T pbc="F F F"
C       -0.16370000       1.45740000       0.01760000
C        0.10880000      -0.05020000      -0.00350000
C        1.22040000      -0.41610000      -0.98110000
O        0.51330000      -0.55570000       1.26460000
C       -0.48480000      -0.60910000       2.27170000
C       -0.22290000      -1.82600000       3.18190000
C        0.52490000      -1.20330000       4.36340000
O       -0.11300000       0.05240000       4.55440000
C       -0.38440000       0.58720000       3.26600000
H        0.73390000       2.00540000       0.32240000
H       -0.45700000       1.80360000      -0.97890000
H       -0.97400000       1.71230000       0.70720000
H       -0.81810000      -0.56730000      -0.30670000
H        2.15470000       0.07740000      -0.69510000
H        1.38970000      -1.49590000      -0.97910000
H        0.96080000      -0.10310000      -1.99670000
H       -1.47520000      -0.66530000       1.80300000
H       -1.17060000      -2.25010000       3.52660000
H        0.33820000      -2.59470000       2.64810000
H        0.44300000      -1.76590000       5.29670000
H        1.59260000      -1.07220000       4.12380000
H        0.43240000       1.24130000       2.93060000
H       -1.30430000       1.17620000       3.33760000
