17
Properties=species:S:1:pos:R:3 gdb_46705=T pbc="F F F"
O        0.07910000      -0.06150000       0.26440000
C       -0.00180000       1.09360000      -0.05840000
O       -1.18110000       1.57080000      -0.52870000
C       -1.37280000       2.97250000      -0.79740000
C       -0.13210000       3.71410000      -1.26450000
C        0.92600000       4.22110000      -0.31080000
C        0.98120000       3.32560000       0.92690000
C        1.14720000       2.07340000      -0.01420000
C        1.20160000       3.03020000      -1.22060000
H       -2.14150000       2.99700000      -1.57370000
H       -1.79910000       3.43330000       0.10230000
H       -0.28720000       4.35120000      -2.12910000
H        1.30230000       5.23420000      -0.38000000
H        1.88510000       3.47540000       1.51940000
H        0.11800000       3.34130000       1.60010000
H        2.05850000       1.51260000       0.18080000
H        1.85190000       2.92900000      -2.07950000
