20
Properties=species:S:1:pos:R:3 gdb_70796=T pbc="F F F"
C        0.11000000       1.45570000      -0.10790000
C        0.01630000      -0.03480000       0.03380000
C       -1.31450000      -0.79370000      -0.15580000
C       -0.75220000      -2.10550000       0.42920000
N       -0.41140000      -1.76690000       1.84120000
C        0.60600000      -0.88400000       1.26490000
C        0.80160000      -1.84560000       0.08060000
C        1.77290000      -2.97390000      -0.06270000
O        0.87500000      -0.79180000      -0.88190000
H        1.13810000       1.79780000       0.04290000
H       -0.21220000       1.77360000      -1.10530000
H       -0.53140000       1.94850000       0.63010000
H       -2.15870000      -0.41170000       0.42740000
H       -1.58200000      -0.83610000      -1.21410000
H       -1.26540000      -3.04940000       0.24690000
H       -1.16350000      -1.29550000       2.34410000
H        1.38970000      -0.45480000       1.89000000
H        1.67070000      -3.65900000       0.78340000
H        1.58370000      -3.53190000      -0.98590000
H        2.80090000      -2.60060000      -0.09350000
