23
Properties=species:S:1:pos:R:3 gdb_103168=T pbc="F F F"
C       -0.07670000       1.59380000      -0.05610000
C        0.03820000       0.07900000      -0.02710000
C        1.09150000      -0.62180000      -0.92910000
C        1.39410000      -1.60990000       0.23200000
C        2.82880000      -2.04260000       0.49100000
C        0.72420000      -0.60190000       1.21090000
O        1.71710000       0.21820000       1.80190000
C       -0.17430000      -1.16150000       2.30110000
O       -0.68700000      -0.03930000       3.02140000
H        0.88930000       2.05410000       0.17080000
H       -0.39830000       1.94390000      -1.04320000
H       -0.80420000       1.94910000       0.68160000
H       -0.94560000      -0.37870000      -0.18330000
H        0.74980000      -1.04330000      -1.87800000
H        1.94730000       0.03250000      -1.12380000
H        0.74560000      -2.49000000       0.14120000
H        3.47320000      -1.17370000       0.64400000
H        2.90530000      -2.67520000       1.38230000
H        3.21520000      -2.61660000      -0.35840000
H        1.25150000       0.75100000       2.45950000
H       -0.98790000      -1.75610000       1.86060000
H        0.41610000      -1.81480000       2.96120000
H       -1.07930000      -0.34970000       3.84200000
