18
Properties=species:S:1:pos:R:3 gdb_126267=T pbc="F F F"
C       -0.36850000       1.55810000      -0.04070000
C        0.05570000       0.08100000       0.05750000
C        0.78500000      -0.41910000      -1.14470000
C        2.12300000      -0.66960000      -1.38730000
O        3.11840000      -0.51250000      -0.49730000
C        4.42010000      -0.86590000      -0.96090000
N        2.29380000      -1.10090000      -2.65950000
N        1.12320000      -1.13810000      -3.25000000
N        0.22350000      -0.72830000      -2.34580000
H        0.50280000       2.20330000      -0.18360000
H       -1.04750000       1.72380000      -0.88360000
H       -0.88330000       1.87250000       0.87210000
H        0.71730000      -0.05330000       0.91860000
H       -0.82740000      -0.54280000       0.24640000
H        4.46120000      -1.91960000      -1.25530000
H        4.71180000      -0.25360000      -1.82020000
H        5.09360000      -0.68300000      -0.12250000
H       -0.74920000      -0.69470000      -2.60740000
