15
Properties=species:S:1:pos:R:3 gdb_16324=T pbc="F F F"
O        0.64980000       0.24380000       0.93060000
C       -0.02910000       0.25830000      -0.31610000
C       -1.40230000      -0.36070000      -0.25440000
C       -2.24420000      -0.49380000       1.01970000
C       -1.87870000      -1.71560000       0.23180000
N       -2.71090000      -1.85460000      -0.96900000
C       -2.36260000      -0.56880000      -1.42640000
O       -2.71780000       0.06930000      -2.37620000
H        0.30010000       0.96320000       1.46510000
H       -0.11270000       1.27760000      -0.72020000
H        0.59960000      -0.30950000      -1.01070000
H       -1.67900000      -0.33960000       1.93460000
H       -3.27300000      -0.14560000       1.04550000
H       -1.28770000      -2.54320000       0.59970000
H       -3.66770000      -2.19160000      -0.95690000
