19
Properties=species:S:1:pos:R:3 gdb_120405=T pbc="F F F"
C       -0.11840000       1.47150000      -0.06690000
C       -0.09430000      -0.02280000       0.20220000
O       -1.30480000      -0.58560000      -0.28130000
C       -1.41560000      -1.98200000      -0.12830000
C       -1.90800000      -2.39360000       1.28980000
C       -3.34810000      -2.27150000       0.73660000
O       -4.41160000      -2.04610000       1.22890000
C       -2.81280000      -2.36270000      -0.72120000
O       -3.33990000      -1.60470000      -1.75470000
H        0.80580000       1.93480000       0.29030000
H       -0.21350000       1.66830000      -1.13850000
H       -0.96220000       1.94130000       0.44620000
H        0.75990000      -0.49930000      -0.30470000
H        0.01440000      -0.22090000       1.27930000
H       -0.53580000      -2.49940000      -0.52780000
H       -1.64990000      -3.42320000       1.55730000
H       -1.65430000      -1.73130000       2.11930000
H       -2.81820000      -3.41720000      -1.02470000
H       -3.09010000      -0.68960000      -1.57140000
