22
Properties=species:S:1:pos:R:3 gdb_98270=T pbc="F F F"
C       -0.00420000       1.43460000       0.13490000
N       -0.10420000      -0.01280000       0.08940000
C       -1.28460000      -0.67120000       0.00780000
O       -2.37380000      -0.11280000      -0.03010000
C       -1.21430000      -2.20780000      -0.04100000
O       -2.51800000      -2.70820000       0.10330000
C       -0.55670000      -2.72480000      -1.34690000
C       -0.42060000      -4.25150000      -1.28800000
C       -1.34620000      -2.28200000      -2.58510000
H        0.59060000       1.81680000      -0.70150000
H       -1.01610000       1.83430000       0.06590000
H        0.45000000       1.77190000       1.07280000
H        0.74100000      -0.55770000       0.14050000
H       -0.59980000      -2.54860000       0.80920000
H       -3.08540000      -1.91820000       0.06480000
H        0.45280000      -2.29120000      -1.39950000
H       -1.40510000      -4.71500000      -1.17950000
H        0.04320000      -4.63770000      -2.20110000
H        0.19460000      -4.56580000      -0.43770000
H       -1.40000000      -1.19190000      -2.66900000
H       -0.88180000      -2.66730000      -3.49800000
H       -2.36910000      -2.66520000      -2.53350000
