19
Properties=species:S:1:pos:R:3 gdb_53557=T pbc="F F F"
C        0.03020000       1.47230000       0.32040000
C        0.01680000       0.03010000       0.11880000
C        0.01280000      -1.16160000      -0.05110000
C       -0.01470000      -2.61140000      -0.25410000
C       -1.39790000      -3.19810000      -0.15170000
C       -2.05730000      -3.92230000      -1.05010000
C       -3.40160000      -4.31590000      -0.50940000
O       -3.46220000      -3.74470000       0.79560000
C       -2.25620000      -3.04290000       1.07790000
H        1.04950000       1.87090000       0.27080000
H       -0.56410000       1.98720000      -0.44250000
H       -0.38250000       1.74170000       1.29880000
H        0.41380000      -2.86130000      -1.23190000
H        0.63670000      -3.08850000       0.49400000
H       -1.70700000      -4.20360000      -2.03570000
H       -4.23140000      -3.93180000      -1.12450000
H       -3.52830000      -5.40890000      -0.44620000
H       -1.77350000      -3.46690000       1.97450000
H       -2.47380000      -1.98690000       1.29770000
