18
Properties=species:S:1:pos:R:3 gdb_14028=T pbc="F F F"
O        0.43090000       0.54100000       0.74110000
C       -0.17040000       0.20270000      -0.50460000
C       -1.49760000      -0.50160000      -0.35090000
C       -1.89520000      -1.62920000      -1.30300000
C       -1.53570000      -1.92080000       0.11570000
C       -0.41770000      -2.76500000       0.71900000
C       -1.50740000      -3.18600000       1.72900000
O       -2.50390000      -2.37330000       1.06170000
H       -0.19930000       1.07520000       1.23500000
H       -0.28240000       1.09240000      -1.14430000
H        0.54760000      -0.45850000      -1.00170000
H       -2.32010000       0.11990000      -0.00080000
H       -2.94220000      -1.70660000      -1.57560000
H       -1.19860000      -1.91220000      -2.08720000
H       -0.03870000      -3.56770000       0.08350000
H        0.41220000      -2.19030000       1.13210000
H       -1.78330000      -4.24630000       1.72410000
H       -1.34640000      -2.85920000       2.76250000
