19
Properties=species:S:1:pos:R:3 gdb_83527=T pbc="F F F"
O        0.03450000       1.44650000       0.01330000
C        0.01210000       0.03960000       0.03190000
C       -1.35770000      -0.61310000      -0.30370000
C       -1.50680000      -0.10100000      -1.75520000
O       -0.14340000      -0.05340000      -2.25470000
C        0.68510000      -0.60080000      -1.19580000
C        0.37490000      -2.08480000      -1.08900000
C        0.16010000      -2.70450000       0.27160000
C       -1.01350000      -2.09660000      -0.45280000
H        0.04400000       1.70790000      -0.91640000
H        0.41620000      -0.26450000       0.99580000
H       -2.18580000      -0.35690000       0.35780000
H       -2.10670000      -0.77190000      -2.37940000
H       -1.93640000       0.90560000      -1.80570000
H        1.71610000      -0.31230000      -1.40310000
H        0.62640000      -2.71610000      -1.93310000
H        0.17430000      -3.78920000       0.28750000
H        0.57610000      -2.26230000       1.16870000
H       -1.79000000      -2.75890000      -0.82090000
