15
Properties=species:S:1:pos:R:3 gdb_42931=T pbc="F F F"
O       -0.00240000      -0.00400000      -0.20590000
C       -0.04920000       1.19160000      -0.16610000
C       -1.08760000       2.27510000       0.08540000
C       -0.61040000       3.10390000       1.28040000
C        0.05230000       3.26970000      -0.05100000
N        0.96520000       2.15630000      -0.33670000
C        2.36030000       1.99560000       0.01300000
C        2.68000000       2.33310000       1.41200000
N        2.91060000       2.61610000       2.50820000
H       -2.09290000       2.32380000      -0.30510000
H       -1.29400000       3.89340000       1.57900000
H       -0.07810000       2.63200000       2.09910000
H        0.08410000       4.17730000      -0.63840000
H        2.61080000       0.94450000      -0.16620000
H        2.99480000       2.60150000      -0.64300000
