19
Properties=species:S:1:pos:R:3 gdb_36206=T pbc="F F F"
C       -0.02200000      -1.13800000       0.45290000
C        0.00680000       0.01970000       0.13180000
C        0.06420000       1.43250000      -0.24670000
C        1.44650000       2.00810000      -0.15550000
C        2.20760000       2.61490000      -1.07080000
C        3.48800000       2.96310000      -0.29600000
C        3.71040000       1.62390000       0.48910000
C        2.32940000       2.03440000       1.10620000
C        2.86920000       3.50500000       1.03870000
H       -0.05380000      -2.16220000       0.73070000
H       -0.31740000       1.55770000      -1.26740000
H       -0.62010000       1.99560000       0.40580000
H        2.00360000       2.82380000      -2.11190000
H        4.29320000       3.47690000      -0.82040000
H        3.74510000       0.69880000      -0.09050000
H        4.53690000       1.67060000       1.20560000
H        1.93850000       1.58790000       2.02020000
H        3.61600000       3.72860000       1.80750000
H        2.13450000       4.31060000       0.96290000
