15
Properties=species:S:1:pos:R:3 gdb_3202=T pbc="F F F"
C       -0.03000000       1.56390000      -0.02560000
O        1.36020000       1.95580000       0.01000000
C        2.10400000       0.73070000       0.08780000
C        1.83020000       0.10700000       1.46260000
O        0.46170000      -0.34140000       1.34450000
C        0.04660000       0.03220000       0.02240000
C        1.30670000      -0.21800000      -0.82110000
H       -0.55740000       1.96320000       0.84720000
H       -0.50080000       1.94630000      -0.94070000
H        3.14780000       0.93470000      -0.14770000
H        2.48270000      -0.74620000       1.68970000
H        1.91610000       0.85140000       2.26120000
H       -0.86960000      -0.50240000      -0.22530000
H        1.24240000       0.14050000      -1.84980000
H        1.63420000      -1.25850000      -0.78900000
