17
Properties=species:S:1:pos:R:3 gdb_86637=T pbc="F F F"
C       -0.02170000       1.49290000       0.04510000
C        0.10000000      -0.01560000       0.12680000
C        0.50080000      -0.72890000      -1.17120000
C        1.30290000      -1.92900000      -0.67820000
O        1.63930000      -2.90890000      -1.28370000
C        1.59120000      -1.64370000       0.81580000
O        1.16310000      -0.33320000       1.05180000
C        0.86700000      -2.69170000       1.66470000
O       -0.08380000      -2.44600000       2.35550000
H        0.90610000       1.93300000      -0.33350000
H       -0.84200000       1.77430000      -0.62190000
H       -0.22340000       1.90940000       1.03540000
H       -0.83390000      -0.44730000       0.51250000
H       -0.33110000      -1.04530000      -1.80340000
H        1.16740000      -0.09950000      -1.77460000
H        2.66870000      -1.73480000       1.00480000
H        1.28870000      -3.71550000       1.56550000
