17
Properties=species:S:1:pos:R:3 gdb_54180=T pbc="F F F"
C        0.28540000       1.27900000      -0.33580000
C        0.01120000      -0.15090000       0.07410000
C        0.67680000      -1.28000000      -0.68240000
N        1.06880000      -0.96990000       0.67220000
C        2.33820000      -0.52420000       1.02330000
O        3.36530000      -0.93820000       0.54890000
C       -1.39620000      -0.39090000       0.60560000
N       -1.51090000      -1.43860000       1.46290000
O       -2.32820000       0.29930000       0.23940000
H        1.26860000       1.37090000      -0.80530000
H       -0.48430000       1.60110000      -1.03920000
H        0.24300000       1.95200000       0.52600000
H        0.14580000      -2.21680000      -0.82210000
H        1.37700000      -1.01290000      -1.46960000
H        2.30060000       0.21150000       1.84830000
H       -0.68450000      -1.87100000       1.84110000
H       -2.41080000      -1.62050000       1.87470000
