12
Properties=species:S:1:pos:R:3 gdb_133602=T pbc="F F F"
F        0.00990000       0.04360000       0.18360000
C       -0.03720000       1.37500000       0.03970000
F        1.20440000       1.81780000      -0.18560000
F       -0.78350000       1.64660000      -1.03300000
C       -0.60180000       2.03450000       1.29190000
O       -1.89820000       1.52810000       1.63030000
C       -1.45920000       0.91160000       2.86540000
C       -0.05410000       1.47370000       2.62900000
O        0.98180000       1.50130000       3.20850000
H       -0.57410000       3.12310000       1.16910000
H       -1.98660000       1.29870000       3.74450000
H       -1.52680000      -0.18230000       2.83950000
