20
Properties=species:S:1:pos:R:3 gdb_55737=T pbc="F F F"
C       -0.02500000       1.42960000      -0.17840000
C       -0.02200000      -0.04840000       0.11940000
N       -0.05860000      -0.62800000       1.24760000
O        0.02800000      -0.74390000      -1.04170000
C        0.04010000      -2.14500000      -0.99920000
C       -1.05420000      -3.10960000      -0.46450000
C        0.06190000      -3.99280000      -1.09870000
C        0.09660000      -2.98670000      -2.28960000
C        1.10990000      -3.08840000      -0.38330000
H        0.87490000       1.70200000      -0.73830000
H       -0.88460000       1.68510000      -0.80550000
H       -0.06560000       2.01470000       0.74170000
H       -0.09320000       0.06130000       1.99550000
H       -1.17030000      -3.15500000       0.61760000
H       -2.01430000      -3.09120000      -0.98770000
H        0.07500000      -5.07760000      -1.16530000
H       -0.78640000      -2.95600000      -2.93330000
H        1.02460000      -2.93830000      -2.86540000
H        2.10590000      -3.05090000      -0.83310000
H        1.14550000      -3.13240000       0.70450000
