23
Properties=species:S:1:pos:R:3 gdb_81031=T pbc="F F F"
C       -0.14260000       1.49850000      -0.08520000
C        0.02610000      -0.01450000       0.00340000
C        1.21080000      -0.60650000      -0.81340000
C        2.10370000      -0.41930000       0.44220000
C        0.78310000      -0.58110000       1.26090000
C        0.64330000       0.10170000       2.60980000
C        0.44500000      -2.08750000       1.31790000
C        0.95820000      -2.80540000       0.04990000
O        0.96190000      -1.97400000      -1.10830000
H        0.79400000       2.03990000       0.08340000
H       -0.50860000       1.78160000      -1.07840000
H       -0.86900000       1.86170000       0.64960000
H       -0.92950000      -0.50550000      -0.21130000
H        1.49590000      -0.12930000      -1.75430000
H        2.92270000      -1.12320000       0.61010000
H        2.49920000       0.59690000       0.50070000
H        0.84440000       1.17540000       2.54240000
H       -0.36720000      -0.02470000       3.01690000
H        1.34560000      -0.32300000       3.33680000
H        0.90880000      -2.55490000       2.19550000
H       -0.63990000      -2.20460000       1.42810000
H        1.97750000      -3.17510000       0.23260000
H        0.34210000      -3.67530000      -0.19540000
