15
Properties=species:S:1:pos:R:3 gdb_45350=T pbc="F F F"
O        0.08240000       0.16770000      -0.83910000
C        0.03250000       1.20180000      -0.24840000
C       -1.07630000       1.99240000       0.45910000
C       -0.06620000       3.17150000       0.63060000
O        0.28450000       3.50060000       1.96980000
C        1.35280000       2.69260000       2.42000000
C        2.00580000       2.05070000       1.19070000
O        3.03880000       1.44240000       1.17340000
C        1.07480000       2.32790000       0.00750000
H       -1.94920000       2.19010000      -0.16920000
H       -1.41760000       1.55330000       1.40180000
H       -0.35170000       4.09310000       0.12320000
H        2.07650000       3.30620000       2.96610000
H        1.01220000       1.89180000       3.09550000
H        1.63400000       2.66240000      -0.86660000
