15
Properties=species:S:1:pos:R:3 gdb_24244=T pbc="F F F"
C       -0.00510000       1.47390000       0.11060000
C        1.29490000       0.72940000       0.03160000
O        2.01960000       0.43160000       1.24510000
C        1.17630000      -0.39920000       1.89950000
C        0.02490000      -0.76190000       1.27980000
N       -0.70100000      -1.61320000       2.07900000
C        0.02730000      -1.74410000       3.16670000
N        1.20400000      -1.00090000       3.11980000
C       -0.03050000      -0.04670000      -0.01930000
H       -0.31180000       1.90480000       1.05710000
H       -0.25780000       2.06180000      -0.76590000
H        1.97180000       0.85790000      -0.80230000
H       -0.21430000      -2.35190000       4.02470000
H        1.91830000      -0.94840000       3.82550000
H       -0.39500000      -0.51140000      -0.92810000
