17
Properties=species:S:1:pos:R:3 gdb_98917=T pbc="F F F"
C       -0.12230000       1.51840000       0.20830000
C       -0.04300000       0.01860000      -0.06510000
C        0.78100000      -0.32900000      -1.29560000
O        1.23060000       0.50050000      -2.04330000
C        1.00830000      -1.84130000      -1.51550000
C        1.64740000      -2.17900000      -2.77190000
C        2.17560000      -2.46960000      -3.81710000
C        2.81260000      -2.76780000      -5.07410000
O        2.99300000      -3.88430000      -5.50370000
H        0.87180000       1.93620000       0.38700000
H       -0.54850000       2.04690000      -0.64750000
H       -0.74360000       1.71670000       1.08570000
H        0.37310000      -0.52570000       0.79370000
H       -1.04530000      -0.40890000      -0.21220000
H        1.61550000      -2.20980000      -0.67610000
H        0.04740000      -2.36490000      -1.42090000
H        3.13640000      -1.87020000      -5.63860000
