18
Properties=species:S:1:pos:R:3 gdb_69245=T pbc="F F F"
C        0.03280000       1.52500000       0.00290000
C        0.02700000       0.01290000      -0.01480000
N       -0.78150000      -0.71390000       0.98290000
C        0.69750000      -0.73010000       1.11030000
C        1.38780000      -2.01730000       0.80050000
O        2.35880000      -2.38270000       1.42550000
C        0.83290000      -2.80010000      -0.38360000
C        0.40390000      -1.91210000      -1.52590000
C        0.05380000      -0.63860000      -1.35850000
H        0.90570000       1.92020000      -0.52690000
H       -0.86310000       1.91990000      -0.49010000
H        0.05600000       1.91060000       1.02690000
H       -1.15240000      -0.06010000       1.67030000
H        1.16230000      -0.15450000       1.90560000
H        1.58690000      -3.53010000      -0.68880000
H       -0.03700000      -3.36950000      -0.02310000
H        0.37320000      -2.36190000      -2.51420000
H       -0.25300000      -0.03220000      -2.20600000
