19
Properties=species:S:1:pos:R:3 gdb_76763=T pbc="F F F"
C       -0.60500000       1.31470000      -0.10460000
C       -0.02860000      -0.09050000      -0.04220000
C        1.21700000      -0.43520000      -0.94990000
O        1.86470000       0.62310000      -1.59900000
C        1.96850000      -0.96610000       0.30260000
O        2.76640000       0.10180000       0.87120000
C        1.73070000       0.45540000       1.82460000
C        0.75090000      -0.56370000       1.21050000
O        0.00320000      -1.37820000       2.05190000
H        0.17800000       2.07690000      -0.06250000
H       -1.14280000       1.46580000      -1.04550000
H       -1.30700000       1.49040000       0.71740000
H       -0.81680000      -0.82950000      -0.21770000
H        0.99300000      -1.20460000      -1.69400000
H        2.47550000       0.99170000      -0.94280000
H        2.49560000      -1.92240000       0.27810000
H        2.03810000       0.19760000       2.84850000
H        1.46900000       1.51790000       1.78850000
H        0.56250000      -1.68080000       2.77620000
