21
Properties=species:S:1:pos:R:3 gdb_114212=T pbc="F F F"
C       -0.51130000       1.55420000      -0.08450000
O       -0.38500000       0.32250000       0.58930000
C       -1.21460000      -0.68030000       0.07300000
C       -0.82230000      -1.33260000      -1.29290000
C       -1.04450000      -2.68840000      -0.62200000
C       -1.77990000      -3.85300000      -1.11480000
O       -0.35280000      -3.87730000      -0.95860000
C       -1.05820000      -2.06070000       0.78130000
C        0.24410000      -2.25060000       1.55700000
H        0.15570000       2.26480000       0.40920000
H       -0.22400000       1.47640000      -1.14380000
H       -1.54220000       1.93940000      -0.03520000
H       -2.26210000      -0.34220000       0.06530000
H       -1.42010000      -1.09400000      -2.17530000
H        0.23670000      -1.16790000      -1.51380000
H       -2.33580000      -4.48010000      -0.41790000
H       -2.13510000      -3.87660000      -2.14480000
H       -1.91100000      -2.34370000       1.40570000
H        1.11430000      -1.96250000       0.96150000
H        0.24530000      -1.64130000       2.46430000
H        0.36060000      -3.30140000       1.83660000
