15
Properties=species:S:1:pos:R:3 gdb_49055=T pbc="F F F"
O       -0.47430000       0.45990000      -0.37920000
C        0.09680000       1.19620000       0.38500000
C        1.37120000       1.90310000       0.03410000
O        1.72030000       2.98720000       0.91750000
C        1.88720000       3.90260000      -0.19970000
C        1.64130000       2.78740000      -1.22970000
C        2.89650000       1.94950000      -1.59210000
C        2.66260000       1.08480000      -0.34080000
O        3.22890000       0.17020000       0.16830000
H       -0.27490000       1.40690000       1.41150000
H        1.12200000       4.68630000      -0.17580000
H        2.88120000       4.36310000      -0.20940000
H        0.89720000       2.94460000      -2.00610000
H        2.76830000       1.34980000      -2.49930000
H        3.85580000       2.47120000      -1.65240000
