20
Properties=species:S:1:pos:R:3 gdb_75908=T pbc="F F F"
C        0.11020000       1.69610000      -0.09100000
C        0.04300000       0.16690000       0.07130000
C        0.71860000      -0.50920000      -1.14110000
O        0.34230000      -0.40830000      -2.28000000
C        1.94540000      -1.28700000      -0.65780000
C        2.21550000      -0.74780000       0.75620000
C        0.82260000      -0.37970000       1.26400000
C        0.53680000      -0.01130000       2.66580000
N        0.20820000      -1.36690000       2.17440000
H        1.14560000       2.05230000      -0.09420000
H       -0.35110000       1.98870000      -1.03780000
H       -0.41420000       2.19840000       0.72660000
H       -1.01070000      -0.13540000       0.09770000
H        1.66020000      -2.34640000      -0.61610000
H        2.77170000      -1.20000000      -1.36640000
H        2.69410000      -1.47190000       1.41750000
H        2.85170000       0.14420000       0.70990000
H        1.34280000       0.02700000       3.39440000
H       -0.27770000       0.68150000       2.86260000
H       -0.79300000      -1.42660000       2.00010000
