19
Properties=species:S:1:pos:R:3 gdb_124500=T pbc="F F F"
C        0.05450000       1.53240000      -0.02840000
C        0.01210000      -0.00460000       0.05780000
C        0.79490000      -0.50810000       1.28480000
C       -1.39890000      -0.52910000       0.03830000
C       -1.98240000      -1.35270000      -0.90760000
O       -1.53050000      -1.92510000      -2.04630000
N       -3.26090000      -1.57370000      -0.53170000
N       -3.57770000      -0.93940000       0.62700000
C       -2.45660000      -0.31550000       0.96190000
H        1.08740000       1.89600000      -0.05600000
H       -0.46330000       1.89330000      -0.92170000
H       -0.43520000       1.98100000       0.84250000
H        0.52850000      -0.39230000      -0.83580000
H        1.83080000      -0.15310000       1.26270000
H        0.33600000      -0.14460000       2.21050000
H        0.80450000      -1.60100000       1.32710000
H       -0.61000000      -1.67070000      -2.17070000
H       -3.94680000      -2.13200000      -1.00990000
H       -2.43360000       0.27750000       1.86570000
