18
Properties=species:S:1:pos:R:3 gdb_114964=T pbc="F F F"
O        0.07890000       1.28250000       0.33590000
C       -0.03220000      -0.11870000       0.22360000
C       -1.44730000      -0.56070000      -0.12100000
C       -1.66560000      -2.09640000      -0.12460000
N       -2.58820000      -2.34660000       0.99190000
C       -2.87560000      -1.21440000       1.48740000
C       -3.80240000      -1.02710000       2.65030000
O       -4.29470000      -2.25350000       3.11810000
O       -2.33310000      -0.09730000       0.94570000
H       -0.56740000       1.56080000       0.99480000
H        0.64610000      -0.42990000      -0.57870000
H        0.28480000      -0.63340000       1.14610000
H       -1.77790000      -0.06800000      -1.03920000
H       -2.10180000      -2.45750000      -1.06100000
H       -0.72830000      -2.64350000       0.03190000
H       -3.26000000      -0.49110000       3.44490000
H       -4.62370000      -0.36480000       2.33450000
H       -3.90610000      -2.93400000       2.54940000
