18
Properties=species:S:1:pos:R:3 gdb_79373=T pbc="F F F"
C       -0.11240000       1.58880000      -0.01630000
C       -0.04210000       0.07060000      -0.01070000
C        1.18100000      -0.62360000      -0.62930000
N        2.08070000      -0.25550000       0.58130000
C        2.51610000      -1.70790000       0.68990000
C        1.05400000      -1.89970000       0.27830000
C        0.28780000      -3.09230000       0.05240000
C       -0.34710000      -4.09740000      -0.13490000
C        0.68470000      -0.64010000       1.14140000
H        0.85200000       2.02370000       0.25810000
H       -0.38970000       1.96210000      -1.00800000
H       -0.86650000       1.94630000       0.69310000
H       -0.99560000      -0.39430000      -0.28220000
H        1.57870000      -0.58840000      -1.64580000
H        3.28880000      -1.99050000      -0.03190000
H        2.80250000      -2.00660000       1.70310000
H       -0.90810000      -4.98380000      -0.30040000
H        0.49600000      -0.62420000       2.21700000
