19
Properties=species:S:1:pos:R:3 gdb_83937=T pbc="F F F"
C       -0.15260000       1.58410000      -0.00170000
C        0.05100000       0.07480000       0.01260000
C        1.08090000      -0.60670000      -0.95450000
C        2.40700000       0.17150000      -0.93850000
O        2.99760000       0.20220000       0.35640000
C        2.12530000       0.15630000       1.48060000
C        0.83220000      -0.62000000       1.18190000
C        1.18470000      -1.69010000       0.13350000
O        1.31890000      -2.87760000       0.14170000
H        0.77840000       2.14540000       0.11030000
H       -0.61560000       1.89890000      -0.94300000
H       -0.82000000       1.88790000       0.81190000
H       -0.91940000      -0.41850000      -0.10350000
H        0.78100000      -0.87810000      -1.96820000
H        3.13870000      -0.32180000      -1.58620000
H        2.25090000       1.18930000      -1.32580000
H        2.68950000      -0.34600000       2.27290000
H        1.88300000       1.16950000       1.83420000
H        0.30780000      -0.90360000       2.09610000
