17
Properties=species:S:1:pos:R:3 gdb_36659=T pbc="F F F"
N        1.24280000      -0.04640000       1.27480000
C        0.63400000       0.65590000       0.58700000
C       -0.10860000       1.55720000      -0.32420000
N        0.67540000       2.58680000      -0.98130000
C        1.25650000       3.59010000      -0.13910000
C        2.48540000       3.43980000       0.76520000
C        3.52030000       2.55400000       0.08450000
O        3.40890000       3.31070000      -1.15960000
C        2.53550000       4.24890000      -0.52230000
H       -0.59390000       0.93720000      -1.08540000
H       -0.91170000       2.03100000       0.25210000
H        1.38200000       2.20110000      -1.59830000
H        0.52420000       4.27580000       0.28430000
H        2.49640000       3.75340000       1.80010000
H        4.52680000       2.66670000       0.50000000
H        3.28730000       1.49280000      -0.04350000
H        2.67740000       5.30020000      -0.74690000
