16
Properties=species:S:1:pos:R:3 gdb_46221=T pbc="F F F"
N       -0.02290000       1.21540000      -0.17970000
C       -0.01120000      -0.01840000       0.03140000
O        1.01500000      -0.86640000       0.42360000
C        0.11680000      -2.02090000       0.45730000
C       -1.02230000      -1.11510000       0.00260000
C       -2.46340000      -1.06170000       0.39360000
C       -2.09430000      -1.39290000      -1.04070000
C       -2.34980000      -0.47430000      -2.10960000
C       -2.57610000       0.27550000      -3.02100000
H        0.89900000       1.63050000      -0.03980000
H        0.44080000      -2.79260000      -0.24600000
H        0.04080000      -2.42780000       1.46970000
H       -2.85960000      -1.86360000       1.00730000
H       -2.87490000      -0.07710000       0.58350000
H       -2.18110000      -2.44330000      -1.30930000
H       -2.76380000       0.95390000      -3.81580000
