11
Properties=species:S:1:pos:R:3 gdb_21395=T pbc="F F F"
N        0.00580000       1.32400000       0.04520000
N        1.28820000       1.77500000       0.02560000
N        2.09240000       0.77490000      -0.00750000
N        1.32210000      -0.34740000      -0.00940000
C        1.41230000      -1.72740000      -0.03340000
C        0.09360000      -2.12940000      -0.01140000
N       -0.80760000      -1.07460000       0.02500000
C       -0.00960000      -0.03670000       0.02430000
H       -0.75350000       1.98190000       0.07250000
H        2.34840000      -2.25440000      -0.06230000
H       -0.26480000      -3.14820000      -0.01990000
