15
Properties=species:S:1:pos:R:3 gdb_4827=T pbc="F F F"
C        0.13730000       1.36980000       0.14630000
C       -0.01290000      -0.09560000      -0.04610000
N       -0.31510000      -0.74190000      -1.12740000
C       -0.30980000      -2.07930000      -0.74850000
C       -0.00700000      -2.18070000       0.56660000
C        0.16600000      -3.28800000       1.54410000
O        1.50750000      -3.44440000       1.99150000
O        0.18620000      -0.89950000       1.03390000
H        1.14950000       1.62270000       0.47900000
H       -0.06120000       1.87150000      -0.80090000
H       -0.56120000       1.74260000       0.90250000
H       -0.52600000      -2.86970000      -1.44990000
H       -0.51660000      -3.14410000       2.39620000
H       -0.10880000      -4.22760000       1.05740000
H        1.77270000      -2.61340000       2.39920000
