25
Properties=species:S:1:pos:R:3 gdb_59664=T pbc="F F F"
C       -0.00460000       1.48810000      -0.39330000
C        0.05780000       0.02740000       0.07770000
C        0.70720000      -0.05540000       1.46770000
C       -1.33330000      -0.60890000       0.05920000
C       -2.12020000      -0.65010000      -1.28670000
C       -2.61760000      -2.07860000      -0.93190000
C       -1.51650000      -2.14270000       0.13340000
C       -0.42770000      -3.17930000       0.15900000
C       -1.41560000      -3.07360000       1.30150000
H        0.99390000       1.93740000      -0.41290000
H       -0.42930000       1.57170000      -1.39840000
H       -0.62510000       2.08990000       0.28180000
H        0.68750000      -0.52980000      -0.63090000
H        0.11050000       0.49230000       2.20720000
H        0.80400000      -1.08640000       1.82020000
H        1.70930000       0.38680000       1.45990000
H       -1.95190000      -0.13010000       0.83180000
H       -2.87620000       0.12080000      -1.45170000
H       -1.43970000      -0.66240000      -2.14390000
H       -3.62140000      -2.07060000      -0.49380000
H       -2.59080000      -2.82970000      -1.72630000
H       -0.51750000      -4.02450000      -0.51680000
H        0.59550000      -2.86560000       0.33680000
H       -1.06000000      -2.67650000       2.24730000
H       -2.16720000      -3.85090000       1.40270000
