22
Properties=species:S:1:pos:R:3 gdb_96363=T pbc="F F F"
C       -0.10620000       1.56610000      -0.08030000
C        0.06200000       0.04670000       0.01230000
C        0.75960000      -0.51700000      -1.24300000
C        0.94920000      -2.03110000      -1.14230000
O        1.66960000      -2.39080000       0.02230000
C        0.99960000      -1.97530000       1.19910000
C        0.80690000      -0.46770000       1.24530000
C        1.80840000       0.35690000       1.96660000
N        0.51410000       0.02300000       2.59890000
H        0.85330000       2.06960000      -0.23670000
H       -0.75090000       1.81980000      -0.92750000
H       -0.57100000       1.99250000       0.81520000
H       -0.94500000      -0.39900000       0.05490000
H        0.17640000      -0.27620000      -2.14020000
H        1.74260000      -0.04240000      -1.35430000
H       -0.03540000      -2.53240000      -1.14750000
H        1.52380000      -2.41390000      -1.99090000
H        0.01270000      -2.46670000       1.27070000
H        1.60250000      -2.30820000       2.04700000
H        2.67510000      -0.11840000       2.41830000
H        1.97520000       1.38110000       1.64700000
H       -0.10340000       0.83030000       2.55930000
