17
Properties=species:S:1:pos:R:3 gdb_78122=T pbc="F F F"
C       -0.00040000       1.57800000      -0.05080000
C        0.08410000       0.06500000      -0.07240000
C        0.66810000      -0.77490000      -1.15320000
C        1.33960000      -0.74450000       0.25110000
C        2.55020000      -0.12940000      -0.37140000
O        3.66620000       0.07500000       0.00130000
C        1.88820000      -0.08640000      -1.81010000
C        2.60970000      -0.88970000      -2.77320000
C        3.21330000      -1.56970000      -3.55960000
H        0.89070000       2.05940000      -0.46010000
H       -0.86490000       1.92320000      -0.62790000
H       -0.11990000       1.93460000       0.97700000
H       -0.78310000      -0.41040000       0.38300000
H        0.15580000      -1.61590000      -1.60050000
H        1.34900000      -1.47490000       1.05080000
H        1.69850000       0.91520000      -2.20890000
H        3.75190000      -2.16130000      -4.25780000
