19
Properties=species:S:1:pos:R:3 gdb_37009=T pbc="F F F"
C       -0.05480000       1.68530000       0.10680000
C        1.22390000       0.88320000       0.04200000
C        2.24730000       0.78010000      -1.08170000
O        3.31230000       0.60940000      -0.11590000
C        2.40990000       0.79810000       0.99500000
C       -0.08960000       0.18790000       0.09960000
C       -0.64240000      -0.81000000       1.11140000
C       -1.12550000      -1.56510000      -0.14620000
O       -0.57800000      -0.54960000      -1.02240000
H       -0.29670000       2.20450000       1.03070000
H       -0.37130000       2.19460000      -0.79920000
H        2.13780000      -0.08780000      -1.74280000
H        2.38550000       1.68610000      -1.68650000
H        2.63280000       1.71740000       1.55430000
H        2.42290000      -0.05400000       1.68870000
H        0.10430000      -1.33030000       1.71510000
H       -1.43290000      -0.42900000       1.76070000
H       -0.66240000      -2.54220000      -0.32130000
H       -2.21120000      -1.65250000      -0.26160000
