15
Properties=species:S:1:pos:R:3 gdb_21307=T pbc="F F F"
C       -0.00300000       1.41560000       0.02710000
O        0.00210000       0.00610000      -0.00220000
C        0.66220000      -0.55870000       1.10120000
C        0.60470000      -2.04480000       0.96280000
C        0.05720000      -2.86660000       0.00670000
N        0.28400000      -4.16530000       0.35780000
N        0.94090000      -4.19970000       1.47710000
N        1.14050000      -2.91550000       1.85280000
H        1.01860000       1.82630000       0.01270000
H       -0.53430000       1.75440000      -0.86440000
H       -0.51890000       1.80200000       0.91980000
H        1.71200000      -0.21540000       1.14760000
H        0.18710000      -0.24020000       2.04730000
H       -0.47290000      -2.59510000      -0.88980000
H        1.63900000      -2.72820000       2.70820000
