20
Properties=species:S:1:pos:R:3 gdb_111696=T pbc="F F F"
O        0.14780000       1.36600000       0.77890000
C        0.18770000       0.09560000       0.13700000
C       -1.19760000      -0.50070000       0.02740000
C       -1.53210000      -1.92670000      -0.22820000
C       -0.45520000      -2.99060000      -0.08920000
O        0.56930000      -2.75640000      -1.04970000
C        0.02520000      -2.89040000       1.38590000
C       -0.96190000      -1.92300000       2.08530000
N       -1.85610000      -1.31530000       1.07470000
H       -0.28400000       1.24990000       1.63140000
H        0.57510000       0.28140000      -0.86910000
H        0.89850000      -0.57600000       0.62910000
H       -1.89350000       0.22600000      -0.39100000
H       -2.37100000      -2.15890000      -0.87870000
H       -0.91220000      -3.97340000      -0.27270000
H        1.18670000      -3.49400000      -1.01480000
H        0.03150000      -3.86980000       1.87260000
H        1.05280000      -2.51790000       1.39750000
H       -1.60400000      -2.46190000       2.78860000
H       -0.44630000      -1.14520000       2.65980000
