19
Properties=species:S:1:pos:R:3 gdb_22288=T pbc="F F F"
C       -0.07460000       1.56380000      -0.02500000
C        0.04560000       0.05240000      -0.08070000
C       -1.07680000      -0.67060000       0.64260000
C        0.60340000      -0.67860000      -1.25990000
N        1.32690000      -0.66120000       0.10550000
C        2.42710000       0.15990000      -0.52710000
C        1.73940000       0.05080000      -1.87120000
N        2.03980000       0.23880000      -3.08750000
O        3.28250000       0.89240000      -3.19400000
H        0.63010000       2.08170000      -0.67660000
H       -1.08190000       1.85940000      -0.33500000
H        0.07220000       1.91940000       1.00140000
H       -2.04390000      -0.45110000       0.17830000
H       -0.91470000      -1.75090000       0.62910000
H       -1.12020000      -0.34920000       1.68860000
H        0.13380000      -1.56860000      -1.66590000
H        2.58340000       1.14910000      -0.09050000
H        3.36880000      -0.39480000      -0.50190000
H        3.40350000       0.94350000      -4.14810000
