18
Properties=species:S:1:pos:R:3 gdb_117110=T pbc="F F F"
C       -0.25810000       0.98440000       1.21300000
C       -0.09570000      -0.06440000       0.12990000
O       -1.28890000      -0.86900000       0.12320000
C       -1.33900000      -1.85720000      -0.77880000
N       -0.41560000      -2.10560000      -1.60530000
C       -2.68890000      -2.59530000      -0.68480000
O       -2.75910000      -3.64000000      -1.64240000
C       -2.95310000      -3.07410000       0.67100000
C       -3.15380000      -3.53310000       1.76310000
H        0.63350000       1.61720000       1.25280000
H       -1.12440000       1.62170000       1.01380000
H       -0.39370000       0.51640000       2.19210000
H        0.03590000       0.38110000      -0.86170000
H        0.76710000      -0.71390000       0.31000000
H       -0.70760000      -2.88170000      -2.19960000
H       -3.46450000      -1.87160000      -0.96730000
H       -2.40520000      -4.43590000      -1.22990000
H       -3.33840000      -3.92050000       2.73490000
