21
Properties=species:S:1:pos:R:3 gdb_119578=T pbc="F F F"
C       -0.44710000       1.46760000       0.41360000
O       -0.69780000       0.10490000       0.65890000
C       -0.83810000      -0.65060000      -0.52830000
C       -1.00700000      -2.09280000      -0.17700000
C       -1.81350000      -3.07430000      -1.00870000
C       -2.15540000      -2.86230000       0.43260000
O       -1.30280000      -3.63200000       1.27750000
C       -0.14100000      -2.86100000       0.83160000
C        1.02370000      -3.71800000       0.38350000
H       -0.34620000       1.96160000       1.38290000
H        0.48130000       1.61680000      -0.16080000
H       -1.27150000       1.94210000      -0.14260000
H       -1.70550000      -0.29800000      -1.11240000
H        0.05180000      -0.51120000      -1.16940000
H       -2.48410000      -2.60510000      -1.72300000
H       -1.39430000      -4.02330000      -1.32960000
H       -3.11930000      -2.55320000       0.81960000
H        0.16090000      -2.18690000       1.64110000
H        0.75570000      -4.36080000      -0.45930000
H        1.86510000      -3.08280000       0.08520000
H        1.35940000      -4.35720000       1.20640000
