16
Properties=species:S:1:pos:R:3 gdb_44703=T pbc="F F F"
O        0.07830000       0.20280000      -0.97810000
C        0.03590000       1.20400000      -0.32810000
C       -1.07130000       1.94310000       0.44310000
C       -0.08580000       3.13570000       0.66110000
C        0.34660000       3.43020000       2.09710000
C        1.53330000       2.49300000       2.36310000
O        2.06440000       2.26370000       3.42430000
N        1.90810000       1.95970000       1.15070000
C        1.08250000       2.29950000       0.01710000
H       -1.96450000       2.15010000      -0.15220000
H       -1.38310000       1.43190000       1.35990000
H       -0.36090000       4.02310000       0.09290000
H        0.68810000       4.46180000       2.23000000
H       -0.43630000       3.25130000       2.83810000
H        2.65350000       1.28200000       1.10510000
H        1.65050000       2.71470000      -0.82180000
