18
Properties=species:S:1:pos:R:3 gdb_47450=T pbc="F F F"
O       -0.16750000       0.15230000       1.12680000
C       -0.08900000       1.23060000       0.60780000
O       -1.13180000       2.11660000       0.55770000
C       -0.75560000       3.26080000      -0.21730000
C        0.77870000       3.20980000      -0.26790000
N        1.00060000       1.79390000      -0.03450000
C        2.31660000       1.25730000       0.10650000
C        2.58590000      -0.12790000      -0.40340000
C        3.14650000       1.06010000      -1.14070000
H       -1.19540000       3.17180000      -1.21720000
H       -1.14750000       4.15660000       0.26750000
H        1.17940000       3.53180000      -1.23320000
H        1.23990000       3.82720000       0.51790000
H        2.84530000       1.56780000       1.00770000
H        3.25750000      -0.74880000       0.17720000
H        1.75240000      -0.65730000      -0.84600000
H        2.68770000       1.32360000      -2.08710000
H        4.20920000       1.26460000      -1.07840000
