23
Properties=species:S:1:pos:R:3 gdb_96592=T pbc="F F F"
C        0.18210000       1.66390000      -0.01430000
C        0.00720000       0.13910000       0.01970000
C        0.57860000      -0.45900000      -1.28280000
O        0.94720000      -1.82150000      -1.21810000
C       -0.09510000      -2.77490000      -1.28750000
C       -0.88620000      -2.96580000       0.01870000
C       -0.04180000      -2.80620000       1.29920000
O       -0.10640000      -1.51550000       1.87900000
C        0.65100000      -0.47650000       1.28560000
H        1.24230000       1.93960000       0.03680000
H       -0.22400000       2.09200000      -0.93750000
H       -0.32930000       2.13910000       0.82810000
H       -1.06460000      -0.07680000       0.08670000
H       -0.12260000      -0.29080000      -2.11680000
H        1.50920000       0.06710000      -1.52950000
H       -0.77700000      -2.53780000      -2.12010000
H        0.41100000      -3.71380000      -1.53850000
H       -1.73010000      -2.27230000       0.08830000
H       -1.32060000      -3.97290000      -0.00580000
H       -0.43450000      -3.47120000       2.07470000
H        1.00250000      -3.09370000       1.10830000
H        1.67400000      -0.81630000       1.06750000
H        0.71350000       0.29300000       2.06280000
