19
Properties=species:S:1:pos:R:3 gdb_19293=T pbc="F F F"
C       -0.10960000       1.31870000       0.05070000
O        0.25860000      -0.04130000       0.14620000
C        0.70060000      -0.59570000      -1.06760000
C        1.31890000      -1.97300000      -0.92390000
C        0.31550000      -2.95680000      -0.47700000
N        0.34110000      -2.60410000      -1.90750000
C       -0.33690000      -1.25790000      -2.04340000
C       -1.82400000      -1.20380000      -1.74110000
H        0.72970000       1.93930000      -0.29980000
H       -0.96000000       1.47450000      -0.62850000
H       -0.39680000       1.64710000       1.05230000
H        1.35510000       0.11340000      -1.59230000
H        2.38140000      -2.18890000      -0.95580000
H        0.66610000      -3.96810000      -0.29620000
H       -0.50790000      -2.64280000       0.15580000
H       -0.15670000      -0.92490000      -3.06950000
H       -2.03940000      -1.32700000      -0.67720000
H       -2.24430000      -0.24210000      -2.05340000
H       -2.34380000      -1.99250000      -2.29520000
