17
Properties=species:S:1:pos:R:3 gdb_20555=T pbc="F F F"
C        0.00570000       1.55100000      -0.01880000
C       -0.00070000       0.01970000       0.05150000
C        0.77760000      -0.51550000       1.25810000
N       -1.37300000      -0.50020000       0.03940000
C       -2.36430000      -0.32620000       0.96510000
N       -3.46170000      -0.94200000       0.60210000
N       -3.20330000      -1.55220000      -0.60850000
C       -1.96280000      -1.27520000      -0.91880000
H        1.03310000       1.91810000      -0.09790000
H       -0.55680000       1.90520000      -0.88650000
H       -0.43940000       1.98930000       0.88000000
H        0.46010000      -0.37230000      -0.86120000
H        0.35570000      -0.14270000       2.19670000
H        0.75690000      -1.60800000       1.28360000
H        1.82010000      -0.18880000       1.20590000
H       -2.23810000       0.24680000       1.87010000
H       -1.44320000      -1.60150000      -1.80690000
