22
Properties=species:S:1:pos:R:3 gdb_30907=T pbc="F F F"
C        0.11490000       1.69830000      -0.00650000
C        0.04910000       0.15860000      -0.02340000
C        0.65630000      -0.46890000      -1.24090000
C        0.07190000      -0.84710000      -2.43800000
C       -1.37590000      -0.72630000      -2.81270000
C        1.10990000      -1.36210000      -3.26770000
C        2.28400000      -1.28170000      -2.56190000
N        2.01200000      -0.73520000      -1.33160000
C        2.98810000      -0.55770000      -0.27850000
H        1.14890000       2.05620000      -0.04540000
H       -0.40810000       2.11550000      -0.87210000
H       -0.34700000       2.10160000       0.90090000
H        0.52580000      -0.23340000       0.88400000
H       -1.00000000      -0.15000000       0.03830000
H       -2.00910000      -0.54370000      -1.93900000
H       -1.55360000       0.09690000      -3.51650000
H       -1.73980000      -1.64040000      -3.29530000
H        0.99790000      -1.74570000      -4.27110000
H        3.29060000      -1.57210000      -2.81940000
H        3.01480000       0.47830000       0.07420000
H        2.78250000      -1.20860000       0.57920000
H        3.97560000      -0.81020000      -0.66890000
