22
Properties=species:S:1:pos:R:3 gdb_110387=T pbc="F F F"
C       -0.00640000       1.64230000      -0.12560000
C        0.03220000       0.14840000       0.21750000
C       -1.33370000      -0.51430000       0.12080000
C       -1.91840000      -0.89010000      -1.24950000
C       -1.06370000      -2.18590000      -1.40410000
C       -2.35030000      -2.97000000      -1.66190000
C       -2.47510000      -4.43610000      -1.29930000
N       -2.83340000      -1.96810000      -0.60780000
C       -1.44970000      -2.04460000       0.10290000
H        0.98400000       2.09780000      -0.03090000
H       -0.35140000       1.80540000      -1.15230000
H       -0.68760000       2.18260000       0.54090000
H        0.74190000      -0.36310000      -0.44500000
H        0.41870000       0.01820000       1.23690000
H       -2.06700000      -0.03560000       0.78200000
H       -2.30660000      -0.25810000      -2.05160000
H       -0.06670000      -2.29720000      -1.84440000
H       -2.82800000      -2.77170000      -2.63080000
H       -1.99250000      -4.66600000      -0.34450000
H       -3.52960000      -4.72110000      -1.22230000
H       -2.01260000      -5.06330000      -2.06930000
H       -1.27650000      -2.75450000       0.91330000
