16
Properties=species:S:1:pos:R:3 gdb_34013=T pbc="F F F"
N        0.00210000      -1.12730000      -0.10570000
C       -0.01160000       0.02880000      -0.05400000
C       -0.03410000       1.46710000       0.00630000
C        0.49550000       2.21660000      -1.22700000
C        1.30520000       2.19470000       0.03010000
O        1.37700000       3.37830000       0.75630000
C        0.64800000       3.39730000       1.98120000
C       -0.77620000       2.93640000       1.81140000
C       -1.10190000       2.05970000       0.86570000
H        0.82010000       1.61840000      -2.07030000
H       -0.00560000       3.14760000      -1.46320000
H        2.20700000       1.58710000       0.06330000
H        1.15860000       2.79000000       2.74690000
H        0.68160000       4.43710000       2.31850000
H       -1.52590000       3.35240000       2.47710000
H       -2.12220000       1.72570000       0.70940000
