20
Properties=species:S:1:pos:R:3 gdb_106896=T pbc="F F F"
C        0.20970000       1.47380000      -0.24810000
C       -0.12020000       0.00460000       0.05530000
C        0.57860000      -0.51850000       1.27620000
N        1.99510000      -0.90400000       1.28310000
C        0.94870000      -1.93910000       1.62590000
C        0.60250000      -1.67100000       3.06970000
O        0.48010000      -2.35280000       4.04550000
C        0.24610000      -0.18520000       2.75460000
C        0.98750000       0.92910000       3.48040000
H        1.28410000       1.61400000      -0.40160000
H       -0.30910000       1.80960000      -1.15060000
H       -0.09580000       2.12540000       0.57640000
H       -1.20340000      -0.10930000       0.18870000
H        0.15220000      -0.62090000      -0.80520000
H        2.26740000      -1.10660000       0.31940000
H        0.87800000      -2.85470000       1.05120000
H       -0.84020000      -0.09000000       2.88380000
H        2.05780000       0.87440000       3.26910000
H        0.62260000       1.91650000       3.17970000
H        0.84330000       0.83320000       4.56110000
