17
Properties=species:S:1:pos:R:3 gdb_75731=T pbc="F F F"
C       -0.02090000       1.43560000      -0.01440000
N        0.00590000      -0.01150000      -0.02750000
C        0.04160000      -0.79610000      -1.17850000
N        0.05470000      -0.28780000      -2.34690000
C        0.05790000      -2.20530000      -0.71560000
C        0.03280000      -2.23560000       0.62250000
C        0.03470000      -3.37160000       1.58320000
C       -0.00190000      -0.80830000       1.10890000
O       -0.03080000      -0.42200000       2.25640000
H        0.86760000       1.84330000      -0.50440000
H       -0.90480000       1.81080000      -0.53760000
H       -0.04620000       1.74970000       1.03000000
H        0.08110000      -1.02500000      -3.05110000
H        0.08590000      -3.04160000      -1.40190000
H        0.06200000      -4.33500000       1.06960000
H        0.89650000      -3.30240000       2.25600000
H       -0.85460000      -3.33400000       2.22190000
