12
Properties=species:S:1:pos:R:3 gdb_132216=T pbc="F F F"
F        0.09910000       0.06540000       0.00200000
C       -0.05210000       1.37730000       0.01120000
C       -1.21820000       2.02560000       0.03070000
C       -1.21850000       3.49200000       0.03870000
N       -2.31730000       4.14220000       0.05740000
N        0.05130000       4.13390000       0.02480000
C        1.09230000       3.42180000       0.00670000
F        2.29810000       3.96450000      -0.00680000
N        1.15360000       2.05490000      -0.00160000
H       -2.15670000       1.49170000       0.04070000
H       -2.11180000       5.14270000       0.06010000
H        2.03230000       1.56220000      -0.01630000
