17
Properties=species:S:1:pos:R:3 gdb_46288=T pbc="F F F"
O       -0.44370000       0.08110000      -0.21170000
C       -0.21870000       1.23870000      -0.02950000
C       -1.01020000       2.47290000       0.41090000
O        0.18830000       3.26290000       0.28570000
C        1.01750000       2.13980000      -0.14110000
C        2.20330000       1.86020000       0.81510000
C        3.42080000       2.20720000      -0.00390000
C        3.11760000       2.46580000      -1.27350000
C        1.63980000       2.34110000      -1.54500000
H       -1.80940000       2.78750000      -0.27250000
H       -1.40150000       2.43950000       1.43580000
H        2.09250000       2.46880000       1.71910000
H        2.21420000       0.80840000       1.13130000
H        4.41840000       2.21760000       0.41990000
H        3.82840000       2.72100000      -2.05120000
H        1.41890000       1.48700000      -2.19940000
H        1.20130000       3.22910000      -2.01300000
