19
Properties=species:S:1:pos:R:3 gdb_114095=T pbc="F F F"
C       -0.12930000       1.49880000      -0.11980000
C        0.15690000       0.03190000       0.03900000
C       -0.97890000      -1.00930000       0.05520000
O       -0.37390000      -1.70330000       1.17770000
C        0.68830000      -0.73760000       1.27300000
C        1.91100000      -1.06330000       0.39790000
C        2.26560000      -2.50550000       0.08830000
O        3.09740000      -2.56940000      -1.05720000
O        1.28420000      -0.41780000      -0.75630000
H        0.76240000       2.09400000       0.09500000
H       -0.43540000       1.71130000      -1.15040000
H       -0.93540000       1.81530000       0.54880000
H       -1.96880000      -0.61850000       0.32250000
H       -1.04930000      -1.63180000      -0.84280000
H        0.83270000      -0.35890000       2.28630000
H        2.80790000      -0.49920000       0.68710000
H        2.83030000      -2.94050000       0.92030000
H        1.34450000      -3.08950000      -0.03860000
H        2.63310000      -2.08360000      -1.74950000
