24
Properties=species:S:1:pos:R:3 gdb_101893=T pbc="F F F"
C       -0.34380000       1.40290000      -0.10900000
C       -0.18690000      -0.09950000       0.14670000
C        0.80850000      -0.46910000       1.26400000
C        0.36180000       0.06590000       2.63310000
C        1.02380000      -1.99400000       1.28990000
C        2.15940000      -2.45610000       2.21120000
N        2.38950000      -3.89080000       2.13260000
C        2.21320000      -4.73520000       3.18360000
O        1.88280000      -4.40700000       4.30380000
H        0.62240000       1.86860000      -0.33460000
H       -1.00570000       1.58490000      -0.96150000
H       -0.77080000       1.92520000       0.75220000
H       -1.16710000      -0.53560000       0.38470000
H        0.14020000      -0.58240000      -0.78320000
H        1.77340000      -0.00050000       1.01390000
H        1.08540000      -0.16800000       3.41900000
H        0.24180000       1.15250000       2.62010000
H       -0.59950000      -0.37300000       2.92630000
H        0.09510000      -2.49550000       1.59270000
H        1.24050000      -2.33690000       0.26840000
H        3.08530000      -1.92070000       1.96020000
H        1.93310000      -2.25270000       3.25910000
H        2.64320000      -4.29280000       1.24380000
H        2.41430000      -5.78760000       2.89880000
