15
Properties=species:S:1:pos:R:3 gdb_12768=T pbc="F F F"
O        0.27610000       1.32030000       0.39330000
C        0.04800000      -0.01340000       0.14230000
C       -0.25830000      -0.57490000      -1.22590000
C       -1.24270000      -0.76240000      -0.10210000
N       -0.79710000      -1.92490000       0.71320000
C        0.43100000      -1.14630000       1.10550000
C        1.74710000      -1.85780000       0.88590000
O        2.74210000      -1.29550000       0.50150000
H        1.13290000       1.54970000       0.01350000
H       -0.53840000       0.19160000      -1.94160000
H        0.27270000      -1.43020000      -1.63520000
H       -2.27660000      -0.44390000      -0.13590000
H       -1.40370000      -2.04260000       1.51920000
H        0.39110000      -0.79370000       2.14470000
H        1.73660000      -2.94950000       1.10230000
