18
Properties=species:S:1:pos:R:3 gdb_49735=T pbc="F F F"
O       -0.41400000       0.80390000      -1.28840000
C        0.01560000       1.08870000      -0.19440000
C        1.29410000       1.83580000      -0.02210000
C        1.45280000       2.86030000       1.07240000
C        0.38860000       3.11460000       2.12980000
O       -0.03810000       1.92860000       2.77420000
C        1.07490000       1.21270000       3.28850000
C        1.92370000       0.63610000       2.15540000
N        2.22680000       1.63200000       1.10590000
H       -0.53000000       0.82350000       0.73020000
H        1.79280000       2.01660000      -0.97170000
H        2.02990000       3.74880000       0.81570000
H        0.80520000       3.81190000       2.87600000
H       -0.50090000       3.58220000       1.69720000
H        1.68410000       1.87990000       3.91960000
H        0.67780000       0.41490000       3.92180000
H        2.88070000       0.28890000       2.56240000
H        1.43010000      -0.23590000       1.71660000
