17
Properties=species:S:1:pos:R:3 gdb_84262=T pbc="F F F"
C       -0.03450000       1.53910000      -0.12230000
C        0.06320000       0.02320000      -0.01140000
N        0.86290000      -0.56870000      -1.11640000
C        1.46960000      -1.55180000      -0.58460000
N        2.63070000      -2.29280000      -0.79720000
C        2.90410000      -2.23490000       0.68640000
C        1.41140000      -1.80500000       0.88630000
C        0.80120000      -0.44770000       1.29740000
O        0.87690000       0.14560000       2.33400000
H        0.96260000       1.98300000      -0.19410000
H       -0.59900000       1.81850000      -1.01490000
H       -0.53250000       1.94990000       0.75980000
H       -0.95150000      -0.40420000       0.01250000
H        3.31610000      -1.95550000      -1.46540000
H        3.19260000      -3.19510000       1.11660000
H        3.62530000      -1.45930000       0.96050000
H        0.77140000      -2.61780000       1.23810000
