18
Properties=species:S:1:pos:R:3 gdb_88147=T pbc="F F F"
O       -0.02630000       1.37070000      -0.03370000
C        0.00380000      -0.02430000      -0.00140000
C       -0.47960000      -0.73700000       1.23610000
C       -1.34000000      -0.68490000      -0.03620000
N       -2.57070000       0.04780000      -0.18170000
C       -3.64580000      -0.95190000      -0.26970000
C       -3.01550000      -2.03840000      -1.15300000
C       -1.53670000      -1.98000000      -0.76630000
O       -0.68790000      -2.81170000      -0.97430000
H        0.72230000       1.69350000       0.47910000
H        0.79270000      -0.50230000      -0.58240000
H       -0.02960000      -1.68810000       1.50080000
H       -0.80710000      -0.11090000       2.06040000
H       -2.71500000       0.74600000       0.53520000
H       -3.92220000      -1.38270000       0.70810000
H       -4.54240000      -0.50630000      -0.70840000
H       -3.42720000      -3.04020000      -1.02180000
H       -3.09380000      -1.77150000      -2.21380000
