16
Properties=species:S:1:pos:R:3 gdb_34824=T pbc="F F F"
N       -0.05360000      -1.19650000      -0.07530000
C       -0.02730000      -0.04130000      -0.02870000
C       -0.01850000       1.41090000       0.00700000
C        0.03860000       2.12180000       1.40760000
C        1.52900000       1.65760000       1.51060000
C        1.36970000       2.14740000       0.03340000
C        0.58290000       3.32830000       0.62530000
C        0.06080000       4.59680000       0.14320000
O        1.10470000       4.50950000       1.15280000
H       -0.75320000       1.80960000      -0.69730000
H       -0.73320000       2.09590000       2.17460000
H        2.17580000       2.26010000       2.14830000
H        1.69320000       0.58830000       1.64970000
H        2.11200000       2.15070000      -0.76270000
H        0.38620000       4.99770000      -0.81500000
H       -0.89380000       4.97300000       0.50650000
