17
Properties=species:S:1:pos:R:3 gdb_75077=T pbc="F F F"
C       -0.42700000       1.36030000       0.26780000
C       -0.18050000      -0.10060000       0.10800000
N       -0.16990000      -0.69990000      -1.02140000
C        0.10260000      -2.11170000      -0.77380000
C        0.25710000      -2.25960000       0.73300000
N        0.49740000      -3.24760000       1.49100000
N        0.06550000      -0.95060000       1.22040000
C        0.12940000      -0.66110000       2.57850000
N       -0.03860000       0.50710000       3.04920000
H        0.41750000       1.84780000       0.76050000
H       -0.58660000       1.78490000      -0.72400000
H       -1.29500000       1.54290000       0.90550000
H       -0.71610000      -2.73660000      -1.15060000
H        1.01230000      -2.42890000      -1.29760000
H        0.60360000      -4.10320000       0.94850000
H        0.33960000      -1.57110000       3.14570000
H        0.05200000       0.48230000       4.06340000
