17
Properties=species:S:1:pos:R:3 gdb_125899=T pbc="F F F"
C       -0.24490000       1.65520000      -0.16460000
C        0.02650000       0.17050000      -0.02420000
C        0.74510000      -0.57270000      -1.22590000
C        1.88460000      -0.81950000      -0.24310000
C        3.07430000      -1.22320000       0.33510000
N        4.19730000      -1.86910000      -0.18370000
N        3.04510000      -0.78710000       1.63230000
N        1.92130000      -0.13600000       1.89810000
N        1.24630000      -0.18330000       0.75460000
H        0.63710000       2.17930000      -0.54390000
H       -1.07520000       1.81840000      -0.85890000
H       -0.51680000       2.09160000       0.80070000
H       -0.84990000      -0.36430000       0.35240000
H        0.22110000      -1.45980000      -1.58940000
H        0.98030000       0.08000000      -2.07040000
H        3.96940000      -2.68130000      -0.74240000
H        4.82390000      -2.13310000       0.56720000
