17
Properties=species:S:1:pos:R:3 gdb_63335=T pbc="F F F"
C       -0.05100000       1.56020000       0.01660000
C       -0.03750000       0.02390000      -0.00220000
C       -1.46440000      -0.54510000      -0.03550000
N        0.79470000      -0.50820000      -1.07420000
C        1.85890000      -1.23700000      -0.65000000
O        2.71180000      -1.79730000      -1.27140000
O        1.81790000      -1.24310000       0.75120000
C        0.73530000      -0.52490000       1.19630000
N        0.42110000      -0.34210000       2.39910000
H        0.96680000       1.95880000       0.01980000
H       -0.57450000       1.94770000      -0.86340000
H       -0.56540000       1.91130000       0.91390000
H       -2.00100000      -0.17740000      -0.91620000
H       -1.44770000      -1.63750000      -0.06900000
H       -2.00480000      -0.23230000       0.86060000
H        0.62660000      -0.37500000      -2.05650000
H        1.07860000      -0.79980000       3.03120000
