11
Properties=species:S:1:pos:R:3 gdb_132223=T pbc="F F F"
O       -0.16470000       1.26020000       0.01020000
C        0.03710000      -0.04980000       0.00230000
N        1.18410000      -0.59450000      -0.00670000
C        1.27960000      -2.01060000      -0.01460000
O        2.35100000      -2.56790000      -0.02320000
C       -0.00730000      -2.72580000      -0.01140000
C       -1.13300000      -2.01440000      -0.00170000
F       -2.34900000      -2.49090000       0.00230000
O       -1.17700000      -0.66420000       0.00560000
H        0.71280000       1.66960000       0.00760000
H       -0.02860000      -3.80540000      -0.01700000
