17
Properties=species:S:1:pos:R:3 gdb_34413=T pbc="F F F"
N       -0.17790000      -1.21030000      -0.06400000
C       -0.10730000      -0.05740000      -0.01570000
C       -0.00060000       1.39980000       0.02920000
C       -0.71790000       2.08630000      -1.15200000
C        0.16270000       3.31760000      -1.42420000
O        1.49170000       2.89990000      -1.12490000
C        1.43710000       2.05490000      -0.00740000
C        1.07120000       2.71680000       1.34890000
N       -0.20170000       1.95700000       1.38490000
H       -0.71860000       1.41850000      -2.01750000
H       -1.75540000       2.33650000      -0.91400000
H        0.14340000       3.64600000      -2.46520000
H       -0.13490000       4.16620000      -0.79100000
H        2.30810000       1.40060000      -0.01740000
H        1.73300000       2.47710000       2.18690000
H        0.97920000       3.80600000       1.27290000
H       -1.05220000       2.49400000       1.50890000
