14
Properties=species:S:1:pos:R:3 gdb_1740=T pbc="F F F"
O       -0.22210000       1.41040000      -0.16010000
C       -0.02760000       0.03220000      -0.04700000
C        1.09290000      -0.50310000      -0.93530000
C        2.37720000       0.10370000      -0.58000000
N        3.36330000       0.62020000      -0.26920000
C       -0.31070000      -0.62750000       1.27760000
C       -1.27590000      -0.77500000       0.11430000
H        0.53030000       1.85460000       0.25030000
H        1.17310000      -1.59110000      -0.84680000
H        0.87370000      -0.26950000      -1.98330000
H        0.28010000      -1.48690000       1.57590000
H       -0.60930000       0.02540000       2.08930000
H       -2.20230000      -0.21500000       0.15910000
H       -1.34580000      -1.73570000      -0.38440000
