17
Properties=species:S:1:pos:R:3 gdb_37506=T pbc="F F F"
O       -0.09510000       1.46980000      -0.05410000
C        1.33860000       1.47780000       0.02250000
C        1.39790000       0.17070000       0.83500000
C        2.53190000      -0.40870000      -0.08180000
C        2.27230000      -1.80290000      -0.59050000
C        1.18430000      -1.75830000      -1.36440000
C        0.64880000      -0.34380000      -1.37200000
C        0.05520000       0.02310000       0.02700000
C        1.90260000       0.55800000      -1.13460000
H        1.79740000       2.43480000       0.26370000
H        1.38000000       0.10220000       1.92020000
H        3.53470000      -0.17050000       0.27400000
H        2.83780000      -2.68160000      -0.30640000
H        0.68270000      -2.59520000      -1.83430000
H       -0.01870000      -0.06720000      -2.18750000
H       -0.82850000      -0.49980000       0.38910000
H        2.45650000       0.92510000      -1.99730000
