20
Properties=species:S:1:pos:R:3 gdb_116479=T pbc="F F F"
C       -0.21280000       1.48510000       0.14370000
C       -0.10570000      -0.02920000      -0.04240000
C        0.82770000      -0.43510000      -1.19750000
C        1.05270000      -1.94910000      -1.18590000
O        2.03040000      -2.36690000      -2.12830000
C        1.56150000      -2.42600000      -3.42610000
O        1.46200000      -1.17310000      -4.09930000
C        0.64870000      -0.19420000      -3.60970000
N        0.31860000       0.13040000      -2.43890000
H        0.75820000       1.91890000       0.40860000
H       -0.55170000       1.95850000      -0.78060000
H       -0.91810000       1.73350000       0.94250000
H        0.25670000      -0.49310000       0.88360000
H       -1.10030000      -0.44980000      -0.23830000
H        1.81220000       0.02820000      -1.02610000
H        1.42910000      -2.25580000      -0.20590000
H        0.10290000      -2.47570000      -1.37230000
H        2.28470000      -2.99400000      -4.01330000
H        0.56950000      -2.90610000      -3.45870000
H        0.28540000       0.40480000      -4.44580000
