17
Properties=species:S:1:pos:R:3 gdb_128164=T pbc="F F F"
C       -0.60940000       1.37570000       0.17590000
N        0.35680000       0.29510000      -0.06180000
C        0.80720000      -0.38800000       1.09720000
C        2.13110000      -0.37760000       1.49320000
O        3.18890000       0.19920000       0.90120000
N        2.22810000      -1.06810000       2.63960000
N        1.00900000      -1.56660000       3.04440000
C        0.15980000      -1.14580000       2.11720000
N       -1.21000000      -1.39850000       2.22970000
H       -0.13500000       2.15170000       0.78380000
H       -0.89510000       1.81940000      -0.78300000
H       -1.51860000       1.04970000       0.70090000
H       -0.00200000      -0.34210000      -0.76510000
H        2.82440000       0.62730000       0.11030000
H        3.04940000      -1.24930000       3.18750000
H       -1.39160000      -2.09540000       2.94230000
H       -1.63240000      -1.68060000       1.35430000
