21
Properties=species:S:1:pos:R:3 gdb_58222=T pbc="F F F"
C        0.01690000       1.59410000      -0.04560000
C       -0.03950000       0.08310000       0.16590000
O        0.45260000      -0.14710000       1.47120000
C       -1.46670000      -0.50800000      -0.00880000
C       -2.14480000      -0.02350000      -1.30050000
C       -1.42650000      -2.06630000      -0.00140000
O       -0.52460000      -2.61080000       0.93900000
C       -2.80200000      -2.64760000       0.27400000
O       -2.98380000      -3.40950000       1.19460000
H        1.01500000       1.94480000       0.22880000
H       -0.17440000       1.87530000      -1.08360000
H       -0.70670000       2.10290000       0.60040000
H        0.61310000      -0.39940000      -0.58600000
H        0.35900000      -1.09760000       1.62700000
H       -2.04340000      -0.16920000       0.86240000
H       -1.50870000      -0.21870000      -2.17190000
H       -3.10400000      -0.51800000      -1.48080000
H       -2.34110000       1.04940000      -1.26160000
H       -1.12870000      -2.39300000      -1.01340000
H       -1.06560000      -3.17400000       1.51980000
H       -3.62990000      -2.34270000      -0.39160000
