21
Properties=species:S:1:pos:R:3 gdb_111280=T pbc="F F F"
C       -0.62170000       1.52710000      -0.27950000
C       -0.26780000       0.04610000      -0.24380000
C        0.99560000      -0.48260000      -1.04260000
C        1.84120000       0.48640000      -1.84550000
O        1.08550000       0.88100000      -2.98640000
C        1.57060000      -0.96480000       0.29490000
O        1.65900000       0.17870000       1.16290000
C        0.39240000      -0.49570000       1.04420000
C       -0.26480000      -0.97950000       2.29560000
H        0.19290000       2.12900000       0.13280000
H       -0.80410000       1.85360000      -1.30650000
H       -1.52160000       1.72870000       0.31200000
H       -1.13900000      -0.56050000      -0.51150000
H        0.71210000      -1.32410000      -1.68230000
H        2.11290000       1.34880000      -1.22290000
H        2.77770000      -0.01260000      -2.14640000
H        1.57620000       1.56750000      -3.44750000
H        2.25610000      -1.78290000       0.49130000
H       -0.73700000      -0.14980000       2.83390000
H       -1.04270000      -1.71490000       2.06530000
H        0.46980000      -1.44080000       2.96130000
