19
Properties=species:S:1:pos:R:3 gdb_26150=T pbc="F F F"
C        0.00810000       1.55030000       0.01730000
C        0.01290000       0.01090000       0.06160000
C        0.74440000      -0.50220000       1.31500000
C       -1.38220000      -0.53700000      -0.01220000
C       -1.98870000      -1.27490000      -0.98290000
N       -1.63570000      -1.72300000      -2.24840000
O       -3.27300000      -1.53140000      -0.59960000
C       -3.38500000      -0.92270000       0.61650000
N       -2.31810000      -0.32060000       1.00660000
H        1.02780000       1.94620000       0.07030000
H       -0.45670000       1.91820000      -0.90240000
H       -0.56000000       1.94930000       0.86310000
H        0.55920000      -0.35010000      -0.82200000
H        0.20530000      -0.19790000       2.21680000
H        0.80910000      -1.59470000       1.31670000
H        1.76050000      -0.09730000       1.36690000
H       -0.64090000      -1.64690000      -2.41280000
H       -1.94820000      -2.66950000      -2.43190000
H       -4.33630000      -1.01750000       1.11440000
