20
Properties=species:S:1:pos:R:3 gdb_58838=T pbc="F F F"
C       -0.23080000       1.57950000      -0.23730000
C        0.01360000       0.07510000      -0.03540000
C       -1.28890000      -0.66170000       0.30080000
C        0.72060000      -0.51590000      -1.23480000
C        0.08700000      -0.93990000      -2.52980000
C        0.85760000      -1.95820000      -1.70600000
N        2.24710000      -2.14410000      -2.06090000
C        2.79490000      -1.01110000      -1.87730000
O        2.04720000       0.01190000      -1.39210000
H        0.70390000       2.10360000      -0.45300000
H       -0.91720000       1.75190000      -1.07380000
H       -0.67380000       2.02360000       0.65980000
H        0.70040000      -0.04780000       0.81290000
H       -2.03490000      -0.54410000      -0.49250000
H       -1.12390000      -1.73160000       0.46000000
H       -1.72260000      -0.25130000       1.21740000
H       -0.99200000      -1.04310000      -2.53390000
H        0.52300000      -0.60240000      -3.46440000
H        0.34510000      -2.81060000      -1.27720000
H        3.83290000      -0.76580000      -2.06660000
