17
Properties=species:S:1:pos:R:3 gdb_81905=T pbc="F F F"
C       -0.07460000       1.39510000      -0.09860000
N        0.00290000      -0.02660000       0.16220000
C       -1.16480000      -0.86600000       0.08230000
C       -1.38230000      -1.59380000      -1.21050000
C       -0.69340000      -2.29270000      -0.02840000
C        0.79720000      -2.21990000       0.00390000
O        1.59710000      -3.11920000       0.04990000
C        1.17030000      -0.73770000       0.00380000
N        2.33480000      -0.24010000      -0.13810000
H        0.91170000       1.82470000       0.08160000
H       -0.36600000       1.60870000      -1.13690000
H       -0.80380000       1.86210000       0.57090000
H       -1.99930000      -0.58540000       0.71590000
H       -2.37560000      -1.95980000      -1.44630000
H       -0.78120000      -1.30880000      -2.06740000
H       -1.19350000      -3.12560000       0.44680000
H        3.00470000      -1.01000000      -0.19220000
