19
Properties=species:S:1:pos:R:3 gdb_11125=T pbc="F F F"
C        0.13280000       1.42830000      -0.25840000
C       -0.03570000      -0.06960000       0.01380000
C       -1.48820000      -0.48220000       0.21720000
C       -2.39970000      -0.48820000      -1.05390000
N       -2.61800000      -1.91840000      -0.83300000
C       -1.76690000      -2.01180000       0.35100000
C       -3.32850000      -2.86760000      -1.47550000
O       -3.38090000      -4.03460000      -1.14110000
H        1.18520000       1.68820000      -0.40540000
H       -0.41190000       1.73510000      -1.15820000
H       -0.24560000       2.02710000       0.57730000
H        0.38900000      -0.64920000      -0.81680000
H        0.53920000      -0.34950000       0.90590000
H       -1.93160000       0.09300000       1.03440000
H       -3.30750000       0.12200000      -0.99330000
H       -1.87750000      -0.25460000      -1.99010000
H       -0.89260000      -2.65820000       0.21190000
H       -2.29920000      -2.33160000       1.25230000
H       -3.86840000      -2.45570000      -2.35410000
