22
Properties=species:S:1:pos:R:3 gdb_14793=T pbc="F F F"
C        0.07130000       1.53520000      -0.03810000
C        0.09510000       0.00430000      -0.03480000
C        0.73430000      -0.58430000      -1.29670000
C        0.75530000      -2.10630000      -1.29260000
O        1.36070000      -2.55950000      -2.48710000
C        1.44850000      -3.96770000      -2.59070000
C        2.25680000      -4.26310000      -3.84470000
O        3.54400000      -3.68370000      -3.77340000
H        1.08470000       1.94660000      -0.10070000
H       -0.49420000       1.91980000      -0.89390000
H       -0.39240000       1.92840000       0.87180000
H        0.63950000      -0.35110000       0.85000000
H       -0.92980000      -0.37660000       0.06680000
H        0.19190000      -0.24340000      -2.18720000
H        1.76410000      -0.21990000      -1.40080000
H        1.31280000      -2.48300000      -0.41780000
H       -0.27090000      -2.50460000      -1.21460000
H        1.95960000      -4.38430000      -1.70760000
H        0.44600000      -4.42310000      -2.65340000
H        2.38990000      -5.34440000      -3.95500000
H        1.69920000      -3.89960000      -4.72300000
H        3.39950000      -2.77130000      -3.49530000
