17
Properties=species:S:1:pos:R:3 gdb_52913=T pbc="F F F"
C        0.03970000       1.51720000      -0.04470000
C        0.03770000       0.06180000      -0.03190000
C        0.04330000      -1.14200000      -0.02860000
C        0.02800000      -2.59790000      -0.00180000
C        0.08740000      -3.24240000       1.43150000
O       -1.22160000      -3.81070000       1.29440000
C       -1.40150000      -3.25350000      -0.01420000
C        0.96250000      -3.17460000      -0.95980000
C        1.72420000      -3.67860000      -1.74050000
H        0.83350000       1.90520000      -0.69210000
H       -0.91330000       1.91220000      -0.41340000
H        0.20090000       1.92310000       0.95990000
H        0.86560000      -4.00320000       1.55110000
H        0.14500000      -2.50910000       2.24280000
H       -2.21960000      -2.52670000      -0.05310000
H       -1.53820000      -4.02110000      -0.78270000
H        2.40120000      -4.11210000      -2.43440000
