15
Properties=species:S:1:pos:R:3 gdb_49850=T pbc="F F F"
N       -0.06330000       1.32490000       0.05500000
C       -0.01620000       0.09090000      -0.16960000
O        1.10850000      -0.59960000      -0.58750000
C        0.77700000      -1.94480000      -0.92460000
C        1.77960000      -2.89840000      -0.28970000
O        2.00850000      -3.99370000      -0.72570000
C       -0.64170000      -2.12250000      -0.38780000
C       -0.88320000      -1.79700000       1.03780000
N       -1.12910000      -0.78590000      -0.02280000
H        0.84320000       1.75510000      -0.12540000
H        0.79550000      -2.08160000      -2.01150000
H        2.26400000      -2.50030000       0.62860000
H       -1.31600000      -2.76780000      -0.93810000
H       -1.78360000      -2.15440000       1.52460000
H       -0.03340000      -1.63600000       1.69480000
