17
Properties=species:S:1:pos:R:3 gdb_24314=T pbc="F F F"
C       -0.15250000       1.51470000      -0.08520000
C        1.40880000       1.73570000       0.07610000
C        2.14560000       1.78950000       1.45120000
C        3.09570000       0.51170000       1.43670000
C        2.20020000      -0.46460000       0.70700000
C        1.23790000      -1.39520000       1.06680000
N       -0.01880000      -1.05940000       0.54590000
C        0.21970000       0.01400000      -0.17710000
N        1.56010000       0.30170000      -0.24900000
H       -0.75860000       1.73450000       0.79480000
H       -0.58670000       1.99290000      -0.96470000
H        1.85360000       2.41010000      -0.66050000
H        2.69350000       2.72390000       1.60060000
H        1.43140000       1.68440000       2.27350000
H        4.02400000       0.73430000       0.89970000
H        3.35650000       0.18540000       2.44450000
H        1.34140000      -2.25710000       1.71050000
