20
Properties=species:S:1:pos:R:3 gdb_86814=T pbc="F F F"
C        0.10730000       1.39200000       0.38810000
C        0.01930000      -0.03900000      -0.11050000
C        1.11900000      -0.56360000      -1.07160000
C        1.29500000      -1.76610000      -0.10730000
C        2.70920000      -2.06130000       0.40440000
C        2.75410000      -2.80880000       1.73900000
O        2.02650000      -2.23670000       2.71690000
O        3.40160000      -3.80250000       1.93060000
N        0.41830000      -1.07530000       0.89450000
H        1.49800000      -1.50160000       2.32610000
H       -0.35420000      -1.64580000       1.22390000
H        1.10300000       1.59970000       0.79180000
H       -0.09170000       2.09670000      -0.42660000
H       -0.62510000       1.57650000       1.18100000
H       -0.98420000      -0.23330000      -0.50930000
H        0.80200000      -0.79850000      -2.08800000
H        1.99930000       0.08320000      -1.11640000
H        0.84090000      -2.68530000      -0.49470000
H        3.26970000      -2.64510000      -0.32830000
H        3.23510000      -1.10910000       0.55140000
