21
Properties=species:S:1:pos:R:3 gdb_64293=T pbc="F F F"
C       -0.30240000       1.55950000       0.00490000
C        0.08190000       0.08190000      -0.02820000
O       -1.10210000      -0.72660000      -0.12360000
C        1.06240000      -0.29970000      -1.16280000
C        1.59560000      -1.68230000      -0.74480000
C        1.73940000      -1.56750000       0.77060000
O        2.89340000      -0.77650000       1.15790000
C        2.05790000       0.25670000       1.71590000
C        0.77210000      -0.44690000       1.24300000
H        0.57000000       2.20760000       0.12860000
H       -0.79280000       1.84780000      -0.93270000
H       -1.00180000       1.75270000       0.82360000
H       -1.53290000      -0.51590000      -0.95930000
H        0.56900000      -0.29710000      -2.14060000
H        1.88140000       0.42620000      -1.20960000
H        0.85960000      -2.45830000      -0.97780000
H        2.54330000      -1.94890000      -1.22040000
H        1.72390000      -2.52760000       1.29640000
H        2.16260000       0.32030000       2.80670000
H        2.27940000       1.24150000       1.28610000
H        0.03710000      -0.68010000       2.01270000
