13
Properties=species:S:1:pos:R:3 gdb_25741=T pbc="F F F"
N        0.00220000       1.32150000      -0.01270000
C        0.02460000      -0.03380000       0.02730000
O        1.06970000      -0.69400000       0.06440000
C       -1.23150000      -0.74680000       0.02610000
C       -1.39460000      -2.10800000       0.06290000
O       -0.44720000      -3.03020000       0.10650000
N       -2.73510000      -2.41720000       0.04820000
C       -3.31610000      -1.25720000       0.00410000
O       -2.49710000      -0.18940000      -0.01250000
H        0.87740000       1.81740000      -0.01340000
H       -0.86150000       1.83420000      -0.04410000
H        0.39450000      -2.52240000       0.10650000
H       -4.37570000      -1.05480000      -0.02060000
