20
Properties=species:S:1:pos:R:3 gdb_109731=T pbc="F F F"
C       -0.32020000       1.57810000       0.21950000
C       -0.11500000       0.08870000       0.03370000
C        0.43930000      -0.53370000      -1.23720000
C        0.82150000       0.28330000      -2.44170000
O        1.87500000      -0.41260000      -3.12620000
C        1.25760000      -0.53190000       0.04030000
C        2.49560000       0.31520000       0.27040000
N        3.43870000       0.23110000      -0.70940000
O        2.65090000       0.96180000       1.29070000
H        0.47140000       2.17370000      -0.24000000
H       -1.27870000       1.89790000      -0.20390000
H       -0.31660000       1.82450000       1.28520000
H       -0.88510000      -0.50740000       0.51660000
H        0.01990000      -1.49800000      -1.51260000
H       -0.04630000       0.39520000      -3.10730000
H        1.15360000       1.28830000      -2.15380000
H        2.06940000       0.06310000      -3.94030000
H        1.34860000      -1.49140000       0.54290000
H        3.21670000      -0.17070000      -1.61160000
H        4.26650000       0.79550000      -0.60250000
