17
Properties=species:S:1:pos:R:3 gdb_77021=T pbc="F F F"
C       -0.07280000       1.58160000       0.15760000
C        0.00540000       0.07970000      -0.00210000
C        0.57120000      -0.59590000      -1.21890000
C        1.12140000       0.18890000      -2.40200000
C        1.89210000      -0.66630000      -3.30580000
N        2.48270000      -1.35830000      -4.01750000
C        1.33450000      -0.67200000       0.10250000
C        2.54910000       0.07610000       0.26030000
N        3.51690000       0.70010000       0.37710000
H        0.81590000       2.09020000      -0.22250000
H       -0.94690000       1.97900000      -0.36840000
H       -0.16990000       1.84610000       1.21480000
H       -0.82040000      -0.45440000       0.45940000
H        0.09850000      -1.52930000      -1.50700000
H        0.29730000       0.63560000      -2.97060000
H        1.76460000       1.01010000      -2.07190000
H        1.33480000      -1.62640000       0.61700000
