19
Properties=species:S:1:pos:R:3 gdb_55149=T pbc="F F F"
C       -0.71600000       0.05290000       0.55380000
C        0.60180000      -0.03750000      -0.18540000
O        1.66760000       0.17080000       0.34750000
C        0.52290000      -0.35080000      -1.69340000
C        1.76080000      -1.10260000      -2.23580000
C        1.26220000      -2.52830000      -2.41140000
C        0.58770000      -3.17630000      -1.21420000
C       -0.22710000      -2.45540000      -2.25810000
O       -0.63310000      -1.12980000      -2.01350000
H       -1.38910000       0.75340000       0.04760000
H       -1.22180000      -0.91670000       0.53760000
H       -0.53890000       0.37360000       1.58080000
H        0.39490000       0.62580000      -2.18130000
H        2.06580000      -0.69610000      -3.20410000
H        2.59580000      -0.99530000      -1.53980000
H        1.73270000      -3.15590000      -3.15840000
H        0.52890000      -4.25960000      -1.20530000
H        0.71750000      -2.73340000      -0.23220000
H       -0.93790000      -2.98460000      -2.88120000
