17
Properties=species:S:1:pos:R:3 gdb_42662=T pbc="F F F"
O       -0.00300000       0.06900000      -0.15140000
C       -0.03320000       1.26780000      -0.03690000
C       -1.22620000       2.15390000       0.08060000
C       -0.74280000       3.40210000       0.83600000
C        0.73910000       3.20790000       1.16080000
C        1.17270000       2.23220000       0.05820000
O        1.29030000       2.89990000      -1.20190000
C        0.13000000       3.63170000      -1.59820000
C       -1.02580000       3.49640000      -0.62500000
H       -2.21560000       1.73070000       0.19280000
H       -1.39900000       3.88910000       1.54740000
H        1.31630000       4.13700000       1.13140000
H        0.86420000       2.75090000       2.14880000
H        2.11820000       1.71860000       0.22510000
H        0.40550000       4.69170000      -1.69790000
H       -0.17410000       3.27650000      -2.59180000
H       -1.93730000       4.00120000      -0.93010000
