15
Properties=species:S:1:pos:R:3 gdb_124425=T pbc="F F F"
C        0.01290000       1.57690000      -0.01500000
C        0.05420000       0.03010000       0.00100000
C        0.64490000      -0.48290000      -1.24100000
N        1.12150000      -0.86290000      -2.22250000
C        0.79940000      -0.49620000       1.20350000
N        0.11530000      -0.88320000       2.25380000
O        1.05930000      -1.25730000       3.19960000
C        2.28420000      -1.08740000       2.68160000
C        2.20370000      -0.60490000       1.41670000
H        1.02250000       1.99190000      -0.06450000
H       -0.55210000       1.93360000      -0.87930000
H       -0.46910000       1.93190000       0.89840000
H       -0.97170000      -0.34800000       0.06610000
H        3.10770000      -1.35550000       3.32500000
H        3.00370000      -0.37850000       0.73240000
