16
Properties=species:S:1:pos:R:3 gdb_48756=T pbc="F F F"
N       -0.23160000       1.10070000      -0.60920000
C       -0.09920000      -0.00170000      -0.01770000
C       -1.23130000      -0.95100000       0.35500000
C       -0.53840000      -2.19120000       0.88040000
C        0.43710000      -2.89350000      -0.01770000
C        0.94080000      -1.82110000       0.92030000
O        1.11140000      -0.53000000       0.38140000
C        1.80620000      -2.13810000       2.07720000
O        1.84160000      -3.22510000       2.60150000
H        0.67340000       1.55150000      -0.75130000
H       -1.85540000      -0.48610000       1.12390000
H       -1.86720000      -1.13040000      -0.51550000
H       -0.96010000      -2.73950000       1.71340000
H        0.70980000      -3.90800000       0.24960000
H        0.45230000      -2.65500000      -1.07640000
H        2.41740000      -1.28210000       2.43370000
