22
Properties=species:S:1:pos:R:3 gdb_102622=T pbc="F F F"
C        0.73810000       1.41420000       0.08180000
C        0.31270000      -0.05180000      -0.02180000
C       -1.19980000      -0.25110000      -0.06130000
C       -1.61670000      -1.71840000      -0.17040000
O       -1.13010000      -2.49910000       0.90920000
O       -1.72720000       0.26880000       1.19030000
C       -2.96880000       0.80580000       1.19400000
C       -3.29450000       1.32880000       2.57070000
N       -3.69050000       0.83170000       0.14990000
H        1.82840000       1.50480000       0.09530000
H        0.36510000       1.99820000      -0.76700000
H        0.35080000       1.86980000       0.99730000
H        0.72220000      -0.49660000      -0.93710000
H        0.72030000      -0.63320000       0.81150000
H       -1.65310000       0.31340000      -0.88120000
H       -2.71120000      -1.77140000      -0.24710000
H       -1.19350000      -2.14920000      -1.08410000
H       -1.42230000      -2.05840000       1.71500000
H       -2.57230000       2.09790000       2.86120000
H       -4.29990000       1.75120000       2.60200000
H       -3.22190000       0.52400000       3.30860000
H       -4.58000000       1.28610000       0.34130000
