19
Properties=species:S:1:pos:R:3 gdb_92842=T pbc="F F F"
C        0.89820000       1.19870000       0.12610000
C       -0.11300000       0.05890000       0.01590000
C        0.07610000      -0.78600000      -1.26690000
N        1.31380000      -1.58860000      -1.22230000
C        1.34330000      -2.19220000      -0.11130000
N        2.28410000      -2.92800000       0.59560000
C        1.68870000      -2.49940000       1.89590000
C        0.43120000      -2.04050000       1.08320000
O       -0.05150000      -0.73170000       1.23130000
H        1.92200000       0.82050000       0.05860000
H        0.74690000       1.92560000      -0.67880000
H        0.77800000       1.71280000       1.08340000
H       -1.12710000       0.47820000      -0.00330000
H       -0.80310000      -1.42960000      -1.41160000
H        0.11970000      -0.10930000      -2.12500000
H        3.27390000      -2.87810000       0.38900000
H        1.55940000      -3.30920000       2.61740000
H        2.19510000      -1.64570000       2.35580000
H       -0.38480000      -2.77140000       1.14400000
