20
Properties=species:S:1:pos:R:3 gdb_110447=T pbc="F F F"
C        0.00070000       1.48720000       0.07420000
C        0.04540000      -0.03410000      -0.11020000
C       -1.34070000      -0.65750000      -0.03560000
C       -1.58070000      -2.17770000      -0.09530000
C       -2.72830000      -1.89890000       0.95870000
C       -1.65410000      -1.90070000       1.99060000
C       -0.74250000      -2.73970000       1.08750000
O       -0.88050000      -4.12800000       1.29780000
N       -2.04710000      -0.62570000       1.30500000
H        1.00520000       1.91940000       0.04670000
H       -0.59080000       1.96380000      -0.71520000
H       -0.45680000       1.74560000       1.03370000
H        0.48520000      -0.28430000      -1.08510000
H        0.70150000      -0.47300000       0.64850000
H       -2.01100000      -0.13870000      -0.73150000
H       -1.63770000      -2.73870000      -1.02690000
H       -3.80090000      -2.03750000       0.98980000
H       -1.73060000      -1.91650000       3.07060000
H        0.33400000      -2.55450000       1.08660000
H       -1.82180000      -4.31980000       1.39020000
