15
Properties=species:S:1:pos:R:3 gdb_33702=T pbc="F F F"
N        0.04300000      -1.12420000      -0.04170000
C        0.02910000       0.03090000      -0.00000000
C        0.02700000       1.47650000       0.07610000
C       -0.89910000       2.16900000       1.06220000
C       -0.70480000       3.45880000       0.79110000
C        0.31480000       3.42740000      -0.32440000
C        1.35780000       2.30680000      -0.03230000
C        1.34570000       2.00990000      -1.53450000
N       -0.14430000       2.26980000      -1.27400000
H       -1.55570000       1.67600000       1.76270000
H       -1.16770000       4.33440000       1.22130000
H        0.61480000       4.34200000      -0.83380000
H        2.18390000       2.31150000       0.68780000
H        1.79660000       2.74800000      -2.20150000
H        1.56240000       0.99260000      -1.86620000
