18
Properties=species:S:1:pos:R:3 gdb_114153=T pbc="F F F"
C        0.01000000       1.31740000      -0.15990000
O       -0.03730000       0.01220000       0.37220000
C       -1.26010000      -0.62460000       0.16100000
C       -1.61760000      -1.19210000      -1.26830000
C       -1.80150000      -2.56910000      -0.60700000
N       -0.45860000      -2.90220000      -0.05080000
C       -1.35660000      -2.03410000       0.73030000
C       -2.76840000      -3.56280000      -0.91050000
C       -3.59220000      -4.39510000      -1.19020000
H        0.99040000       1.73180000       0.08530000
H       -0.11190000       1.32100000      -1.25340000
H       -0.76920000       1.96290000       0.27600000
H       -2.09260000      -0.00570000       0.53070000
H       -2.53240000      -0.77050000      -1.68620000
H       -0.80850000      -1.16500000      -2.00040000
H       -0.52790000      -3.83640000       0.35370000
H       -1.68300000      -2.31750000       1.72330000
H       -4.31870000      -5.13060000      -1.43230000
