16
Properties=species:S:1:pos:R:3 gdb_39798=T pbc="F F F"
C       -0.03220000       1.52700000      -0.00660000
N        1.26490000       0.78400000       0.05040000
C        0.01510000       0.06610000       0.00540000
C       -0.54860000      -1.03200000       0.92420000
O       -1.73310000      -1.07490000       0.02340000
C       -0.58240000      -1.01590000      -0.91260000
C        0.11930000      -2.05510000      -0.01360000
C        1.32230000      -2.87070000      -0.03840000
O       -0.01620000      -3.43680000      -0.02290000
H       -0.27310000       2.08060000       0.89600000
H       -0.30420000       2.02560000      -0.93320000
H        1.71860000       0.79160000      -0.86030000
H       -0.71740000      -1.04850000       1.99890000
H       -0.78810000      -1.01530000      -1.98230000
H        1.86970000      -3.01380000      -0.96820000
H        1.89750000      -3.02260000       0.87270000
