17
Properties=species:S:1:pos:R:3 gdb_30897=T pbc="F F F"
N        0.06810000       1.38560000       0.21890000
C        0.00080000      -0.01090000       0.07320000
C       -1.04600000      -0.84940000      -0.26230000
C       -0.54100000      -2.17980000      -0.17770000
O       -1.21290000      -3.34280000      -0.43380000
C        0.78270000      -2.13390000       0.19800000
C        1.78580000      -3.20790000       0.40210000
O        2.89830000      -3.13370000      -0.50050000
N        1.08810000      -0.78100000       0.35170000
H        0.71690000       1.81550000      -0.43360000
H       -0.84190000       1.80560000       0.07870000
H       -2.03920000      -0.54380000      -0.55660000
H       -2.12880000      -3.12740000      -0.62880000
H        2.24530000      -3.15530000       1.39750000
H        1.27010000      -4.17520000       0.33250000
H        2.52640000      -3.10170000      -1.38870000
H        1.97510000      -0.42950000       0.66800000
