19
Properties=species:S:1:pos:R:3 gdb_108166=T pbc="F F F"
C       -0.02730000       1.48470000      -0.17240000
C        0.01620000       0.00160000       0.10620000
N        1.26830000      -0.82100000      -0.01820000
C        2.46140000      -0.04770000       0.09890000
N        2.74270000       0.50960000       1.20650000
C        1.63150000       0.21140000       2.12860000
C        0.62190000      -0.60800000       1.31660000
C        0.03170000      -1.84840000       1.94920000
O        1.04000000      -2.75810000       2.34960000
H        0.84060000       2.01630000       0.22190000
H       -0.08340000       1.67210000      -1.24970000
H       -0.92640000       1.91180000       0.28470000
H       -0.82760000      -0.53970000      -0.31900000
H        3.11210000       0.00730000      -0.76960000
H        2.00480000      -0.38110000       2.97070000
H        1.22840000       1.14660000       2.53340000
H       -0.51920000      -1.58330000       2.85880000
H       -0.68080000      -2.31440000       1.25200000
H        1.54640000      -2.96980000       1.55640000
