21
Properties=species:S:1:pos:R:3 gdb_118352=T pbc="F F F"
C       -0.07060000       1.59850000       0.08580000
C       -0.01680000       0.07080000       0.01090000
C       -1.40650000      -0.57720000       0.01130000
C       -1.36660000      -2.11320000      -0.05350000
C       -0.74360000      -2.69820000       1.21160000
O       -0.09580000      -3.71250000       1.24210000
C       -2.76190000      -2.69950000      -0.23350000
C       -3.08750000      -4.10070000       0.05030000
O       -3.47130000      -3.05930000       0.95830000
H        0.93370000       2.03260000       0.07800000
H       -0.62170000       2.01720000      -0.76360000
H       -0.57150000       1.93260000       1.00090000
H        0.52170000      -0.23740000      -0.89490000
H        0.57160000      -0.31490000       0.85430000
H       -1.96040000      -0.27250000       0.91020000
H       -1.98430000      -0.19970000      -0.84180000
H       -0.75070000      -2.43980000      -0.90120000
H       -0.94660000      -2.11630000       2.13760000
H       -3.37420000      -2.17660000      -0.97080000
H       -3.91000000      -4.57430000      -0.48280000
H       -2.30870000      -4.76880000       0.41110000
