14
Properties=species:S:1:pos:R:3 gdb_129044=T pbc="F F F"
N       -0.07720000       1.35170000       0.00840000
C       -0.02780000       0.07300000       0.00120000
C       -1.26370000      -0.68410000       0.00440000
C       -1.47850000      -2.01360000      -0.00130000
N       -0.58820000      -3.06330000      -0.01200000
N        0.73940000      -3.11180000      -0.01990000
C        1.52160000      -2.08270000      -0.01900000
C        1.32890000      -0.61800000      -0.01020000
O        2.32920000       0.07780000      -0.01260000
H        0.88670000       1.70410000       0.00470000
H       -2.15150000      -0.06130000       0.01290000
H       -2.50170000      -2.37540000       0.00270000
H       -0.98810000      -3.98830000      -0.01450000
H        2.57750000      -2.34190000      -0.02640000
