12
Properties=species:S:1:pos:R:3 gdb_131246=T pbc="F F F"
O       -0.12610000       1.31160000       0.01140000
C        0.06680000      -0.01740000       0.00260000
C        1.18650000      -0.79790000      -0.00850000
N        0.69530000      -2.10820000      -0.01300000
N        1.12200000      -3.39690000      -0.02270000
N        0.02880000      -4.10790000      -0.02070000
N       -1.10720000      -3.35600000      -0.00910000
C       -0.65200000      -2.11790000      -0.00490000
N       -1.06910000      -0.81360000       0.00500000
H        0.72530000       1.76200000       0.00810000
H        2.23180000      -0.55150000      -0.01330000
H       -2.01660000      -0.47900000       0.01280000
