21
Properties=species:S:1:pos:R:3 gdb_122836=T pbc="F F F"
C       -0.05730000       1.53230000       0.01100000
C       -0.05240000       0.00180000       0.00290000
C       -1.45730000      -0.58260000       0.01280000
O       -1.36050000      -1.99370000       0.00450000
C       -2.60320000      -2.62580000       0.01270000
C       -2.40510000      -4.13310000       0.00270000
O       -1.35700000      -4.71630000      -0.01180000
O       -3.61470000      -4.73340000       0.01250000
C       -3.58500000      -6.16590000       0.00410000
H        0.96250000       1.92700000       0.00360000
H       -0.57520000       1.93590000      -0.86620000
H       -0.55870000       1.92660000       0.90190000
H        0.47320000      -0.37380000      -0.88220000
H        0.48950000      -0.38300000       0.87400000
H       -2.01030000      -0.24320000       0.90650000
H       -2.02680000      -0.23380000      -0.86680000
H       -3.20010000      -2.36250000       0.90280000
H       -3.21660000      -2.35310000      -0.86330000
H       -3.06130000      -6.54610000       0.88500000
H       -4.62710000      -6.48520000       0.01260000
H       -3.07860000      -6.53610000      -0.89090000
