17
Properties=species:S:1:pos:R:3 gdb_51253=T pbc="F F F"
O       -0.61680000       0.60430000       0.58140000
C        0.15950000       0.92020000      -0.27970000
C        1.27560000       1.94230000      -0.10030000
C        1.28270000       2.96350000      -1.18910000
C        1.02370000       4.27490000      -1.19000000
C        1.24470000       4.63430000      -2.66970000
C        0.45880000       3.49810000      -3.39300000
C        1.61830000       2.73540000      -2.68610000
O        2.47360000       3.88730000      -2.97490000
H        0.10910000       0.46440000      -1.29560000
H        1.16560000       2.39960000       0.88610000
H        2.22220000       1.37840000      -0.11200000
H        0.74330000       4.93840000      -0.38520000
H        1.25200000       5.67500000      -2.98900000
H       -0.57120000       3.29670000      -3.09190000
H        0.57690000       3.52730000      -4.47850000
H        2.01720000       1.77670000      -3.01810000
