14
Properties=species:S:1:pos:R:3 gdb_28120=T pbc="F F F"
C        0.06190000       1.43600000      -0.00060000
C       -0.06420000      -0.04230000      -0.01350000
N       -1.13380000      -0.74920000      -0.27800000
C       -0.66850000      -2.03500000      -0.14250000
C        0.64950000      -2.05610000       0.19490000
O        1.07590000      -0.76380000       0.28750000
N        1.17130000      -3.29370000       0.34440000
C        0.12140000      -4.06400000       0.08570000
N       -1.02930000      -3.35870000      -0.21780000
H        0.80970000       1.77410000      -0.72580000
H       -0.90390000       1.87460000      -0.25250000
H        0.37380000       1.79640000       0.98530000
H        0.12970000      -5.14270000       0.10180000
H       -1.92700000      -3.75250000      -0.44240000
