17
Properties=species:S:1:pos:R:3 gdb_16437=T pbc="F F F"
C        0.05320000       1.53080000      -0.15270000
N        0.04530000       0.07470000      -0.03940000
C       -1.10760000      -0.49720000       0.71290000
C       -0.26240000      -1.70790000       1.19040000
O       -0.62830000      -1.58180000       2.59270000
C       -0.53270000      -0.20020000       2.14410000
C        0.70160000      -0.47910000       1.19020000
C        2.16820000      -0.41880000       1.48050000
H        1.04080000       1.86470000      -0.48660000
H       -0.67350000       1.83680000      -0.91230000
H       -0.18930000       2.06130000       0.78470000
H       -2.13860000      -0.47070000       0.35870000
H       -0.13980000      -2.69790000       0.75370000
H       -0.73840000       0.58430000       2.87240000
H        2.37980000      -0.95430000       2.41120000
H        2.74200000      -0.88190000       0.67150000
H        2.51100000       0.61490000       1.59520000
