16
Properties=species:S:1:pos:R:3 gdb_47282=T pbc="F F F"
O       -0.00300000      -0.01820000       0.58410000
C       -0.06410000       1.04880000       0.00650000
C       -1.40950000       1.71670000      -0.24070000
C       -1.50940000       2.48390000      -1.56210000
N       -0.84030000       3.77210000      -1.53110000
C        0.48490000       4.02040000      -1.32820000
O        0.94470000       5.14960000      -1.39620000
C        1.40760000       2.88460000      -1.01890000
C        1.19670000       1.68650000      -0.45500000
H       -2.16080000       0.92380000      -0.19420000
H       -1.61140000       2.40530000       0.59010000
H       -1.12670000       1.86430000      -2.38500000
H       -2.56130000       2.68150000      -1.78110000
H       -1.36930000       4.59860000      -1.76570000
H        2.43200000       3.17440000      -1.23410000
H        2.05760000       1.05340000      -0.25540000
