16
Properties=species:S:1:pos:R:3 gdb_15554=T pbc="F F F"
C       -0.04480000       1.47650000       0.02370000
N       -0.05300000       0.03600000       0.16240000
C       -1.35950000      -0.62320000       0.09960000
C       -1.16110000      -1.86130000       0.92750000
C       -0.01550000      -1.80760000       1.59560000
C        0.69550000      -0.50240000       1.29730000
C        2.12660000      -0.67150000       0.97220000
N        3.25160000      -0.79280000       0.73850000
H        0.98660000       1.83900000      -0.02370000
H       -0.53770000       1.75790000      -0.91160000
H       -0.55830000       2.00000000       0.85230000
H       -2.17030000       0.00010000       0.52450000
H       -1.64170000      -0.83980000      -0.94010000
H       -1.88830000      -2.66190000       0.97220000
H        0.38860000      -2.53940000       2.28160000
H        0.65750000       0.15720000       2.18810000
