18
Properties=species:S:1:pos:R:3 gdb_56218=T pbc="F F F"
O       -1.24030000      -0.33220000      -0.19950000
C       -0.60570000       0.84660000      -0.17780000
O        0.53040000       0.97370000      -0.54790000
C       -1.40500000       2.04640000       0.35460000
O       -2.65890000       1.68990000       0.89760000
C       -3.80690000       1.90880000       0.09730000
C       -3.80980000       1.15500000      -1.26020000
N       -4.29280000      -0.03460000      -0.51760000
H       -4.94940000      -0.63600000      -1.00350000
H       -2.16850000      -0.24300000       0.09340000
C       -4.85240000       0.85940000       0.53040000
H       -0.80640000       2.50090000       1.15000000
H       -1.49000000       2.78440000      -0.45280000
H       -4.08220000       2.96850000       0.08940000
H       -4.55530000       1.59950000      -1.93480000
H       -2.87210000       1.01870000      -1.80460000
H       -4.76810000       0.48930000       1.55490000
H       -5.87830000       1.19740000       0.33240000
