17
Properties=species:S:1:pos:R:3 gdb_66794=T pbc="F F F"
O       -0.07900000       1.37400000       0.00650000
C        0.07560000      -0.00430000       0.00420000
C        0.64750000      -0.74530000      -1.24660000
C        0.66490000      -2.16770000      -0.74470000
C        0.57120000      -2.18080000       0.78240000
C       -0.76740000      -1.61830000       1.21170000
C        0.49120000      -0.76710000       1.30270000
C       -1.20980000      -0.88610000      -0.08220000
C       -0.61180000      -1.59660000      -1.32460000
H        0.79620000       1.77470000       0.06220000
H        1.27870000      -0.34330000      -2.03100000
H        1.21470000      -2.92940000      -1.28220000
H        1.05210000      -2.95220000       1.37000000
H       -1.38630000      -2.03510000       1.99660000
H        1.02130000      -0.37930000       2.16510000
H       -2.18020000      -0.40040000      -0.13750000
H       -1.12970000      -1.99920000      -2.18630000
