17
Properties=species:S:1:pos:R:3 gdb_49132=T pbc="F F F"
O       -0.08580000      -0.02030000       0.06820000
C       -0.01790000       1.18620000       0.04670000
C        1.25880000       1.94140000       0.01430000
C        1.21340000       3.28620000      -0.01560000
C        2.43260000       4.13240000      -0.01470000
O        2.35630000       5.34180000      -0.08330000
C        3.75660000       3.39120000       0.11200000
C        3.70900000       2.00270000      -0.54080000
C        2.54940000       1.16800000       0.01650000
H       -0.93080000       1.82040000       0.04910000
H        0.26580000       3.81940000      -0.03320000
H        4.54480000       4.02480000      -0.30200000
H        3.96250000       3.28770000       1.18780000
H        3.57970000       2.11730000      -1.62410000
H        4.65850000       1.48020000      -0.39030000
H        2.76650000       0.85310000       1.04770000
H        2.40900000       0.23990000      -0.54530000
