17
Properties=species:S:1:pos:R:3 gdb_124905=T pbc="F F F"
C       -0.12710000       1.60540000       0.02210000
C       -0.02600000       0.08990000       0.03840000
O       -1.31230000      -0.41030000       0.30530000
C        0.71500000      -0.55460000      -1.23340000
N        1.69810000      -1.03740000      -0.25840000
N        2.87420000      -1.64310000      -0.07990000
C        3.04120000      -1.51220000       1.25020000
C        1.98790000      -0.80970000       1.89590000
C        1.13480000      -0.51980000       0.84390000
H        0.83500000       2.05990000      -0.22520000
H       -0.87170000       1.91980000      -0.71520000
H       -0.44480000       1.96590000       1.00390000
H       -1.23630000      -1.34700000       0.51760000
H        0.14980000      -1.34450000      -1.73490000
H        1.11900000       0.15060000      -1.96460000
H        3.92320000      -1.93460000       1.71050000
H        1.89890000      -0.57530000       2.94320000
