17
Properties=species:S:1:pos:R:3 gdb_38293=T pbc="F F F"
C       -0.06070000       1.59140000       0.02190000
C        1.47000000       1.37110000       0.04250000
O        1.23950000       0.14280000       0.80530000
C       -0.01150000       0.04590000       0.05070000
C        0.35460000      -0.49310000      -1.35250000
C        0.83060000       0.58010000      -2.37980000
O        1.70790000      -0.40470000      -3.02280000
C        1.89420000      -0.60400000      -1.57540000
C        1.95620000       0.93960000      -1.36140000
H       -0.42110000       2.00020000       0.96650000
H       -0.52180000       2.10160000      -0.82650000
H        2.13120000       2.06850000       0.55930000
H       -0.77470000      -0.53100000       0.57550000
H       -0.25350000      -1.30290000      -1.75620000
H        0.24470000       1.23090000      -3.03040000
H        2.58760000      -1.37710000      -1.25050000
H        2.82600000       1.45180000      -1.77330000
