18
Properties=species:S:1:pos:R:3 gdb_76097=T pbc="F F F"
C       -0.18430000       1.52860000      -0.08260000
N        0.04010000       0.09270000       0.06810000
C        1.34840000      -0.48210000      -0.27130000
C        2.44170000       0.36810000      -0.67460000
N        3.30410000       1.05710000      -1.02170000
C        0.85630000      -0.41730000       1.15650000
C        1.51540000       0.44720000       2.18480000
C        0.92350000       0.49980000       3.54880000
N        2.19910000      -0.19290000       3.32070000
H        0.70330000       2.15490000       0.07060000
H       -0.56040000       1.71240000      -1.09260000
H       -0.95530000       1.82930000       0.63160000
H        1.30870000      -1.42470000      -0.81160000
H        0.47850000      -1.35560000       1.56810000
H        2.03930000       1.32130000       1.81100000
H        0.99380000       1.41190000       4.13400000
H        0.03050000      -0.09220000       3.73530000
H        2.05280000      -1.20010000       3.29730000
