16
Properties=species:S:1:pos:R:3 gdb_131867=T pbc="F F F"
O       -0.03520000       1.41960000      -0.00090000
C       -0.01870000       0.00800000       0.00960000
C       -1.41650000      -0.58240000       0.03570000
O       -2.04380000      -0.17020000      -1.19990000
C       -3.31180000      -0.50880000      -1.39750000
C       -4.14460000      -0.22350000      -2.44130000
C       -5.34270000      -0.87240000      -2.05780000
N       -5.25910000      -1.48970000      -0.90390000
O       -3.93100000      -1.25130000      -0.47450000
H       -0.54160000       1.68830000      -0.77530000
H        0.53040000      -0.40170000      -0.85240000
H        0.50840000      -0.29890000       0.91860000
H       -1.39400000      -1.67600000       0.09060000
H       -1.99230000      -0.19080000       0.87980000
H       -3.92770000       0.35040000      -3.32430000
H       -6.28210000      -0.91130000      -2.59260000
