24
Properties=species:S:1:pos:R:3 gdb_120753=T pbc="F F F"
C       -5.36300000      -1.01090000      -2.05050000
C       -4.39720000      -1.94640000      -1.31880000
C       -2.92730000      -1.53160000      -1.47330000
C       -1.99110000      -2.44240000      -0.70520000
C       -1.38170000      -3.64150000      -1.34920000
N       -0.54950000      -2.50790000      -0.96020000
C        0.05540000      -1.64820000      -1.94920000
C        1.29090000      -2.09800000      -2.67030000
C        0.01830000      -1.84300000      -3.45120000
H       -6.40220000      -1.32900000      -1.92080000
H       -5.27970000       0.01570000      -1.67660000
H       -5.15380000      -0.98750000      -3.12580000
H       -4.65410000      -1.97660000      -0.25170000
H       -4.52240000      -2.97180000      -1.68920000
H       -2.65570000      -1.52050000      -2.53410000
H       -2.80590000      -0.50030000      -1.11230000
H       -2.22530000      -2.50970000       0.35800000
H       -1.21520000      -4.56040000      -0.79260000
H       -1.60620000      -3.78940000      -2.40410000
H        0.05500000      -0.61550000      -1.61140000
H        2.12070000      -1.40720000      -2.77030000
H        1.58440000      -3.13390000      -2.53630000
H       -0.48930000      -2.70840000      -3.86110000
H       -0.04420000      -0.95960000      -4.07840000
