15
Properties=species:S:1:pos:R:3 gdb_42843=T pbc="F F F"
O        0.00030000       0.00580000      -0.00910000
C       -0.01620000       1.18730000      -0.09980000
C       -1.05300000       2.34610000       0.04340000
O       -0.02620000       2.97190000       0.87080000
C        0.99360000       2.37270000       0.01550000
C        0.93820000       3.08310000      -1.37690000
C       -0.07230000       4.24800000      -1.29330000
C       -1.05410000       3.05720000      -1.34970000
O       -0.05910000       2.33050000      -2.15180000
H       -2.00920000       2.24230000       0.55530000
H        1.96580000       2.29390000       0.50100000
H        1.89570000       3.17350000      -1.89000000
H       -0.06880000       4.89690000      -0.41980000
H       -0.09240000       4.81170000      -2.22550000
H       -2.02730000       3.12260000      -1.83640000
