18
Properties=species:S:1:pos:R:3 gdb_31669=T pbc="F F F"
C        0.08300000       1.51210000      -0.28070000
C       -0.01820000       0.03480000       0.14110000
C       -1.41800000      -0.49220000       0.17360000
C       -2.22630000      -0.86920000       1.21670000
C       -3.48760000      -1.27930000       0.67720000
C       -4.65060000      -1.76280000       1.40810000
O       -5.70290000      -2.10080000       0.90540000
C       -3.40210000      -1.13560000      -0.69820000
N       -2.16040000      -0.66390000      -0.98500000
H        1.12500000       1.84620000      -0.28000000
H       -0.31550000       1.67050000      -1.28850000
H       -0.48440000       2.15060000       0.40250000
H        0.59960000      -0.57670000      -0.53110000
H        0.40920000      -0.08970000       1.14080000
H       -1.95160000      -0.85780000       2.26130000
H       -4.50910000      -1.80620000       2.51250000
H       -4.13330000      -1.34040000      -1.46260000
H       -1.82070000      -0.47180000      -1.91290000
