17
Properties=species:S:1:pos:R:3 gdb_95114=T pbc="F F F"
O        0.09830000       1.36720000      -0.14870000
C        0.07040000      -0.04080000      -0.08430000
C        0.75160000      -0.63370000       1.17810000
C        0.01820000      -1.95550000       1.48810000
C       -1.37260000      -1.73370000       0.92750000
O       -1.93840000      -0.46200000       1.26460000
C       -1.34430000      -0.62890000      -0.04970000
C       -2.21260000      -0.51480000      -1.18310000
C       -2.90620000      -0.40600000      -2.15870000
H       -0.42710000       1.69490000       0.59120000
H        0.56610000      -0.38530000      -0.99850000
H        1.82570000      -0.76420000       1.03400000
H        0.61480000       0.07340000       2.00060000
H        0.47490000      -2.80530000       0.96710000
H        0.00510000      -2.19520000       2.55580000
H       -2.08790000      -2.54770000       0.84300000
H       -3.52790000      -0.30900000      -3.01420000
