16
Properties=species:S:1:pos:R:3 gdb_126329=T pbc="F F F"
C        0.03650000       1.54430000      -0.14940000
C       -0.00730000       0.02050000       0.06100000
C       -1.39940000      -0.53730000       0.06200000
C       -2.15510000      -0.97110000       1.12990000
N       -3.35580000      -1.36630000       0.63070000
N       -3.45650000      -1.23060000      -0.69210000
C       -2.26940000      -0.72410000      -1.04940000
C       -1.97550000      -0.43470000      -2.41090000
N       -1.68100000      -0.17940000      -3.50090000
H        1.06990000       1.90340000      -0.14020000
H       -0.40790000       1.81940000      -1.11010000
H       -0.51440000       2.06530000       0.63960000
H        0.57580000      -0.46680000      -0.72900000
H        0.48050000      -0.23520000       1.00780000
H       -1.93000000      -1.03000000       2.18310000
H       -4.14040000      -1.74250000       1.13740000
