21
Properties=species:S:1:pos:R:3 gdb_90178=T pbc="F F F"
O       -0.75600000       1.17170000       1.06200000
C       -0.09230000       0.29180000       0.15280000
C        0.93730000      -0.64150000       0.87120000
C        0.14980000      -1.88310000       1.22830000
C       -1.18450000      -1.74540000       1.91070000
C       -1.14430000      -1.88750000       0.41360000
C       -0.90720000      -3.35470000       0.00710000
C        0.42050000      -3.35060000       0.84330000
C       -1.17760000      -0.64600000      -0.45280000
H       -0.08540000       1.71190000       1.49200000
H        0.39930000       0.88660000      -0.63060000
H        1.74240000      -0.90260000       0.17290000
H        1.40480000      -0.11790000       1.71520000
H       -1.55760000      -2.57190000       2.51100000
H       -1.43060000      -0.76000000       2.28620000
H       -1.68070000      -4.07070000       0.30450000
H       -0.72320000      -3.47540000      -1.06370000
H        1.30740000      -3.46910000       0.21530000
H        0.48970000      -4.06380000       1.67160000
H       -2.13490000      -0.11660000      -0.48870000
H       -0.90410000      -0.90590000      -1.48200000
