19
Properties=species:S:1:pos:R:3 gdb_76766=T pbc="F F F"
O        0.28880000       1.14560000      -0.50780000
C       -0.01340000      -0.16840000      -0.11350000
C        0.18830000      -0.42270000       1.42250000
O        0.68810000       0.68970000       2.14940000
C       -1.32640000      -0.68520000       1.58070000
O       -1.70640000      -1.85040000       2.25680000
C       -2.20250000       0.58400000       1.78200000
C       -2.46060000       0.65030000       0.24450000
C       -1.52240000      -0.55750000       0.02600000
H        0.46100000       1.63160000       0.31200000
H        0.54510000      -0.86010000      -0.75280000
H        0.75780000      -1.33360000       1.63660000
H        1.64820000       0.62890000       2.18130000
H       -1.73290000      -1.65520000       3.20050000
H       -3.09820000       0.35940000       2.36630000
H       -1.69110000       1.43890000       2.22840000
H       -3.49840000       0.44510000      -0.02480000
H       -2.13630000       1.56390000      -0.25620000
H       -1.86690000      -1.38510000      -0.59320000
