17
Properties=species:S:1:pos:R:3 gdb_29534=T pbc="F F F"
O        0.14030000       1.36650000      -0.10470000
C        0.09510000       0.00230000      -0.01470000
C        0.08170000      -0.83670000      -1.10910000
N        0.02000000      -2.15300000      -0.63690000
C        0.00320000      -2.10870000       0.71710000
C        0.04930000      -0.81160000       1.15290000
C       -0.04690000      -0.80060000       2.65530000
C        0.21720000      -2.31970000       2.95970000
N       -0.02360000      -3.11000000       1.71030000
H        0.17010000       1.72390000       0.78660000
H        0.11740000      -0.61560000      -2.16150000
H        0.08150000      -2.97680000      -1.20760000
H        0.70110000      -0.18320000       3.16460000
H       -1.03210000      -0.47080000       3.01780000
H        1.26780000      -2.45030000       3.23800000
H       -0.39640000      -2.70920000       3.77560000
H       -0.92770000      -3.57510000       1.75160000
