15
Properties=species:S:1:pos:R:3 gdb_132563=T pbc="F F F"
C       -0.05010000       1.50970000      -0.04760000
C       -0.00890000       0.00880000      -0.01430000
N        0.01140000      -0.65220000      -1.17010000
C        0.03130000      -1.96710000      -1.12050000
F        0.04810000      -2.61660000      -2.28390000
C        0.03510000      -2.68000000       0.06790000
N        0.02690000      -2.03860000       1.23630000
C        0.00140000      -0.70530000       1.20890000
N       -0.07390000      -0.04930000       2.42660000
H        0.85600000       1.94910000       0.39160000
H       -0.12760000       1.85160000      -1.08020000
H       -0.90370000       1.89350000       0.52370000
H        0.05060000      -3.76530000       0.07620000
H        0.15330000      -0.64440000       3.21050000
H        0.35280000       0.86300000       2.47600000
