18
Properties=species:S:1:pos:R:3 gdb_53356=T pbc="F F F"
C       -0.32140000       1.23810000       0.39740000
C       -0.14330000      -0.18450000       0.14810000
C       -0.00380000      -1.36150000      -0.06390000
C        0.17660000      -2.78870000      -0.31520000
C        0.95350000      -3.51860000       0.80590000
C       -0.17770000      -3.91770000       1.75970000
C       -1.35560000      -4.10380000       0.82820000
N       -2.41110000      -4.74660000       1.08130000
O       -1.10200000      -3.46970000      -0.36060000
H        0.28190000       1.57250000       1.24830000
H       -0.03000000       1.83370000      -0.47430000
H       -1.36870000       1.46730000       0.62190000
H        0.63610000      -2.93920000      -1.29660000
H        1.43740000      -4.40610000       0.38760000
H        1.71680000      -2.88400000       1.25650000
H        0.01070000      -4.82130000       2.33910000
H       -0.40560000      -3.10810000       2.46150000
H       -3.05420000      -4.70370000       0.28850000
