21
Properties=species:S:1:pos:R:3 gdb_113539=T pbc="F F F"
C       -0.41580000       1.21850000      -0.07610000
C        0.05870000      -0.21680000       0.03930000
O        1.26590000      -0.45570000      -0.73420000
C        1.98930000      -0.93000000       0.42070000
C        0.78540000      -0.66280000       1.31370000
C        0.74850000      -0.06610000       2.68790000
C        0.26420000      -1.48180000       2.45280000
C       -1.20700000      -1.79080000       2.53280000
O       -1.48370000      -2.86130000       1.63760000
H        0.35580000       1.91450000       0.26570000
H       -0.65430000       1.45010000      -1.11910000
H       -1.32160000       1.37820000       0.52000000
H       -0.73410000      -0.91410000      -0.26380000
H        2.27890000      -1.98480000       0.32110000
H        2.88690000      -0.32880000       0.61900000
H        1.68770000       0.07440000       3.21380000
H        0.00540000       0.69840000       2.89670000
H        0.90800000      -2.28580000       2.80140000
H       -1.47940000      -2.05760000       3.56610000
H       -1.78620000      -0.89140000       2.26640000
H       -2.40460000      -3.11620000       1.74930000
