19
Properties=species:S:1:pos:R:3 gdb_106129=T pbc="F F F"
C       -0.22460000       1.34230000       0.04050000
O        0.14220000      -0.02700000      -0.05910000
C        0.73830000      -0.51230000       1.07130000
C        0.84200000      -1.92260000       1.54570000
C        2.34760000      -1.80340000       1.70580000
C        2.20420000      -0.22790000       1.60790000
C        2.00950000       0.29730000       3.00490000
C        0.82110000      -0.11620000       3.46960000
C        0.08550000      -0.82850000       2.39500000
H        0.65140000       1.98050000       0.21850000
H       -0.68200000       1.61880000      -0.91180000
H       -0.94540000       1.50270000       0.85310000
H        0.28690000      -2.79660000       1.22830000
H        2.81800000      -2.19150000       2.61430000
H        2.85450000      -2.19960000       0.82230000
H        2.92220000       0.28100000       0.96650000
H        2.78120000       0.80400000       3.57140000
H        0.43980000       0.01840000       4.47430000
H       -0.98770000      -0.97750000       2.42640000
