19
Properties=species:S:1:pos:R:3 gdb_53621=T pbc="F F F"
C        0.07810000       1.49730000      -0.01260000
C        0.04020000       0.04430000       0.07000000
C        0.00920000      -1.15650000       0.14590000
C       -0.04680000      -2.61070000       0.22170000
C       -1.43350000      -3.19040000      -0.10300000
C       -1.46180000      -4.73790000      -0.08980000
O       -2.66810000      -5.05410000       0.58430000
C       -2.82730000      -4.01480000       1.51540000
O       -2.40210000      -2.82760000       0.88240000
H        0.56110000       1.83390000      -0.93670000
H       -0.93170000       1.92190000       0.00690000
H        0.63390000       1.92920000       0.82720000
H        0.67850000      -3.04970000      -0.47860000
H        0.24520000      -2.95280000       1.22330000
H       -1.77410000      -2.79220000      -1.06530000
H       -1.49360000      -5.18300000      -1.08620000
H       -0.59050000      -5.13930000       0.45290000
H       -3.88500000      -3.92970000       1.78070000
H       -2.22350000      -4.20750000       2.42210000
