19
Properties=species:S:1:pos:R:3 gdb_90622=T pbc="F F F"
C       -0.10500000       1.46290000      -0.08440000
C        0.03170000      -0.04170000       0.03160000
O        1.11600000      -0.54760000      -0.80980000
C        1.81420000      -1.07020000       0.32420000
C        0.73130000      -0.58100000       1.30800000
C        0.46090000      -2.05930000       1.67990000
O        0.09390000      -2.74960000       0.48140000
C        1.48880000      -2.55030000       0.73180000
C        2.39180000      -3.73910000       0.71130000
H        0.82380000       1.96830000       0.19840000
H       -0.34560000       1.74240000      -1.11480000
H       -0.91070000       1.82260000       0.56560000
H       -0.90590000      -0.54920000      -0.21480000
H        2.87020000      -0.78840000       0.36900000
H        0.94000000       0.10970000       2.12340000
H        0.09840000      -2.46880000       2.61680000
H        2.58370000      -4.05860000      -0.31920000
H        3.35490000      -3.50510000       1.17650000
H        1.93630000      -4.57530000       1.24880000
