15
Properties=species:S:1:pos:R:3 gdb_48983=T pbc="F F F"
O       -0.66280000       0.75570000      -0.51710000
C        0.26640000       0.86880000       0.23490000
C        1.42190000       1.81780000      -0.00840000
O        1.40240000       2.83910000       1.02910000
C        2.77040000       3.26410000       1.10700000
C        3.43330000       2.40520000      -0.01770000
O        2.67150000       1.19430000       0.18290000
C        2.86880000       2.92100000      -1.33490000
C        1.58930000       2.54330000      -1.33410000
H        0.35330000       0.29640000       1.18050000
H        2.84570000       4.34140000       0.93300000
H        3.17860000       3.01000000       2.09000000
H        4.50190000       2.22280000       0.06920000
H        3.38920000       3.56670000      -2.02830000
H        0.78790000       2.77320000      -2.01940000
