15
Properties=species:S:1:pos:R:3 gdb_127768=T pbc="F F F"
C       -0.01310000       1.43990000      -0.02580000
N       -0.00730000       0.00100000       0.06960000
N       -0.04060000      -0.77410000      -1.08280000
N       -0.02630000      -2.02890000      -0.75500000
C        0.01720000      -2.12040000       0.60700000
C        0.02930000      -0.83320000       1.12520000
N        0.07120000      -0.87780000       2.48510000
C        0.08690000      -2.23600000       2.83850000
C        0.05450000      -3.02460000       1.71740000
H        0.89540000       1.86910000       0.41040000
H       -0.05280000       1.68890000      -1.08670000
H       -0.88830000       1.86590000       0.47640000
H        0.09060000      -0.10950000       3.13020000
H        0.12030000      -2.51050000       3.88090000
H        0.05750000      -4.10240000       1.70590000
