18
Properties=species:S:1:pos:R:3 gdb_20068=T pbc="F F F"
C       -0.14250000       1.36320000      -0.20310000
C        1.28140000       0.97540000       0.09810000
C        0.20870000      -0.08120000       0.07150000
C       -0.25300000      -0.72250000       1.35080000
C       -1.63800000      -1.39120000       1.27440000
O       -1.52050000      -2.49300000       2.15940000
C       -0.20110000      -2.94240000       1.98380000
O        0.60570000      -1.80880000       1.72980000
H       -0.69150000       1.90680000       0.55920000
H       -0.40300000       1.64140000      -1.21780000
H        2.00260000       0.98880000      -0.71110000
H        1.69100000       1.25300000       1.06350000
H        0.21110000      -0.75360000      -0.78240000
H       -0.23790000       0.02470000       2.15840000
H       -2.45490000      -0.75400000       1.61750000
H       -1.85070000      -1.72790000       0.24680000
H        0.12540000      -3.44020000       2.90330000
H       -0.13460000      -3.64450000       1.13250000
