19
Properties=species:S:1:pos:R:3 gdb_64156=T pbc="F F F"
C        0.13030000       1.45950000      -0.06420000
C       -0.09370000      -0.05760000       0.03710000
C       -1.59320000      -0.39480000       0.03420000
O        0.52650000      -0.69430000      -1.09710000
C        1.53750000      -1.61240000      -0.68920000
C        1.54380000      -1.53820000       0.81530000
C        2.43450000      -2.32070000       1.67260000
O        3.25550000      -3.10610000       1.25210000
C        0.62200000      -0.66000000       1.21900000
H        1.19880000       1.69020000      -0.07090000
H       -0.30940000       1.83340000      -0.99340000
H       -0.33650000       1.98490000       0.77510000
H       -2.04740000      -0.03650000      -0.89410000
H       -1.74360000      -1.47570000       0.09720000
H       -2.10670000       0.08020000       0.87630000
H        1.30570000      -2.62400000      -1.05070000
H        2.50860000      -1.33000000      -1.11950000
H        2.30730000      -2.14440000       2.76340000
H        0.39540000      -0.39490000       2.24540000
