23
Properties=species:S:1:pos:R:3 gdb_99632=T pbc="F F F"
C        0.10390000       1.55530000      -0.09920000
C        0.16520000       0.03130000       0.01400000
C        0.63950000      -0.47460000       1.39880000
C       -0.27180000      -0.05000000       2.46430000
C       -1.04080000       0.28030000       3.32840000
C        0.79730000      -1.99270000       1.39880000
C        2.06220000      -2.63750000       0.88270000
C        1.71020000      -2.72950000       2.34980000
C        2.54430000      -2.03160000       3.40280000
H        1.09040000       2.00460000       0.06230000
H       -0.24150000       1.86010000      -1.09180000
H       -0.58010000       1.97700000       0.64300000
H       -0.82150000      -0.39920000      -0.19480000
H        0.85150000      -0.37570000      -0.73740000
H        1.62060000      -0.02050000       1.59310000
H       -1.70890000       0.57630000       4.09860000
H       -0.13080000      -2.50560000       1.15900000
H        1.98540000      -3.52080000       0.25800000
H        2.88290000      -1.97770000       0.61420000
H        1.32750000      -3.69420000       2.67380000
H        2.98350000      -1.10140000       3.03050000
H        1.94530000      -1.78430000       4.28540000
H        3.37170000      -2.67310000       3.72550000
