19
Properties=species:S:1:pos:R:3 gdb_103953=T pbc="F F F"
O       -0.00730000       1.16870000      -0.47960000
C       -0.18100000      -0.22890000      -0.25640000
C       -1.59250000      -0.39730000       0.28880000
O       -1.75380000       0.37520000       1.45270000
C       -2.69730000      -0.24910000      -0.81700000
C       -2.80140000      -1.77510000      -0.82840000
C       -3.75860000      -2.68280000      -1.45350000
O       -2.42930000      -2.53170000      -1.97610000
C       -2.00460000      -1.88180000       0.47470000
H        0.91930000       1.33990000      -0.66800000
H       -0.05520000      -0.80570000      -1.18360000
H        0.53600000      -0.60250000       0.48970000
H       -1.32410000       1.22110000       1.26870000
H       -3.58850000       0.23230000      -0.40650000
H       -2.41170000       0.22960000      -1.75580000
H       -3.97190000      -3.64810000      -0.99500000
H       -4.55450000      -2.28370000      -2.08170000
H       -1.20800000      -2.63030000       0.49950000
H       -2.64100000      -1.99080000       1.35670000
