14
Properties=species:S:1:pos:R:3 gdb_10811=T pbc="F F F"
N        0.04340000       1.35260000       0.39560000
C       -0.08740000       0.01980000       0.09270000
N       -1.19540000      -0.59710000       0.16600000
C       -1.23190000      -1.98020000      -0.26560000
C        0.07700000      -2.74470000      -0.15140000
O        0.16500000      -3.94680000      -0.19370000
C        1.31180000      -1.87770000       0.06770000
O        1.12560000      -0.50290000      -0.26430000
H        0.88170000       1.79680000       0.05800000
H       -0.80500000       1.88960000       0.31350000
H       -1.99310000      -2.53260000       0.29670000
H       -1.54490000      -2.04510000      -1.32070000
H        1.60450000      -1.96850000       1.12380000
H        2.13540000      -2.24790000      -0.54610000
