16
Properties=species:S:1:pos:R:3 gdb_125252=T pbc="F F F"
C        0.00750000       1.48200000      -0.12020000
C       -0.01290000      -0.01250000      -0.07800000
C       -1.12680000      -0.76110000      -0.13830000
C       -1.02540000      -2.20400000      -0.08260000
N       -2.18640000      -2.95370000      -0.21750000
N        0.08770000      -2.85330000       0.03430000
O        1.26060000      -2.07860000       0.04920000
C        1.27380000      -0.70590000       0.02480000
N        2.37420000      -0.06720000       0.08110000
H        0.61180000       1.82790000      -0.96440000
H       -1.00220000       1.89090000      -0.20200000
H        0.49130000       1.87890000       0.77750000
H       -2.10910000      -0.31030000      -0.23890000
H       -2.99010000      -2.57830000       0.26660000
H       -2.04390000      -3.93610000      -0.02110000
H        3.16030000      -0.71570000       0.14770000
