14
Properties=species:S:1:pos:R:3 gdb_131233=T pbc="F F F"
O        0.52700000       1.26700000      -0.14730000
C        0.18170000      -0.03210000      -0.10080000
C        0.57500000      -1.04460000      -0.94590000
N       -0.06160000      -2.13340000      -0.43360000
C       -0.08380000      -3.50380000      -0.93100000
C        1.24750000      -4.04370000      -1.17820000
C        2.33740000      -4.49230000      -1.40570000
N       -0.79330000      -1.81630000       0.64070000
N       -0.64520000      -0.53020000       0.84720000
H        0.08110000       1.69830000       0.59290000
H        1.22600000      -1.08710000      -1.80010000
H       -0.61210000      -4.08110000      -0.16690000
H       -0.68200000      -3.54650000      -1.84970000
H        3.30290000      -4.89360000      -1.59410000
