20
Properties=species:S:1:pos:R:3 gdb_24144=T pbc="F F F"
C       -0.08180000       1.55360000      -0.12670000
C       -0.17550000       0.03890000      -0.24080000
C       -0.17860000      -0.81630000       0.99770000
C       -1.43470000      -0.68040000       0.16810000
C        1.32940000       2.06300000      -0.02920000
C        1.95160000       2.54780000       1.10010000
N        3.24200000       2.88330000       0.77120000
C        3.46140000       2.62390000      -0.55700000
C        2.29630000       2.11530000      -1.07960000
H       -0.58180000       2.00780000      -0.99290000
H       -0.64920000       1.87640000       0.75530000
H        0.35250000      -0.37270000      -1.09690000
H        0.35160000      -1.76220000       0.98050000
H       -0.14860000      -0.31160000       1.95830000
H       -2.24780000      -0.08640000       0.57400000
H       -1.76160000      -1.53300000      -0.41740000
H        1.57960000       2.68270000       2.10370000
H        3.91700000       3.27390000       1.40390000
H        4.41710000       2.82670000      -1.01320000
H        2.14380000       1.81460000      -2.10570000
