20
Properties=species:S:1:pos:R:3 gdb_6941=T pbc="F F F"
C       -0.29710000       1.34050000      -0.02630000
O       -0.17420000      -0.05960000      -0.08660000
C        0.79730000      -0.48400000      -1.01840000
C        0.83100000      -1.99010000      -0.99790000
O        0.00150000      -2.69510000      -1.92840000
C        1.42790000      -2.83500000      -2.04820000
C        2.04070000      -2.24840000      -3.30370000
C        1.95580000      -4.20310000      -1.66700000
H        0.64900000       1.82250000       0.26960000
H       -0.60920000       1.76660000      -0.99310000
H       -1.05920000       1.56980000       0.72230000
H        0.55440000      -0.11770000      -2.02660000
H        1.79060000      -0.08310000      -0.74510000
H        0.80310000      -2.39330000       0.01640000
H        1.58530000      -1.29460000      -3.57350000
H        3.11820000      -2.09800000      -3.17480000
H        1.90080000      -2.93780000      -4.14340000
H        1.79160000      -4.91540000      -2.48310000
H        3.03240000      -4.16570000      -1.46750000
H        1.44800000      -4.58080000      -0.77650000
