23
Properties=species:S:1:pos:R:3 gdb_83640=T pbc="F F F"
C       -1.23770000       0.97420000       0.32180000
C       -0.33420000      -0.23260000       0.11110000
C        0.67780000      -0.16970000      -1.05380000
O        1.23960000       1.14750000      -1.26340000
C        2.44550000       0.79350000      -0.54500000
C        1.85090000      -0.55090000      -0.10980000
C        0.86060000      -0.53710000       1.10980000
C        1.12890000       0.49870000       2.20010000
C        0.73640000      -1.92920000       1.73430000
H       -0.66790000       1.90560000       0.29190000
H       -1.99520000       1.02800000      -0.46790000
H       -1.76360000       0.91610000       1.28050000
H       -0.94900000      -1.13500000       0.01030000
H        0.43010000      -0.66180000      -1.99920000
H        3.29770000       0.69520000      -1.23120000
H        2.70130000       1.52300000       0.23130000
H        2.47200000      -1.44010000      -0.21890000
H        1.16630000       1.52020000       1.81410000
H        0.34250000       0.46720000       2.96250000
H        2.08140000       0.29490000       2.70350000
H        1.63680000      -2.18920000       2.30350000
H       -0.11830000      -1.97520000       2.41920000
H        0.59160000      -2.70040000       0.96980000
