16
Properties=species:S:1:pos:R:3 gdb_97877=T pbc="F F F"
C       -0.09930000       1.61880000      -0.02740000
C        0.06390000       0.08910000       0.03800000
C        0.74040000      -0.46420000      -1.12970000
C        1.29970000      -0.90110000      -2.10140000
C        1.97080000      -1.44650000      -3.26580000
C        1.85620000      -2.96100000      -3.40140000
O        1.27810000      -3.69830000      -2.65170000
C        2.55020000      -3.49550000      -4.59640000
N        3.09570000      -3.90000000      -5.53230000
H        0.87420000       2.11180000      -0.09310000
H       -0.68610000       1.91080000      -0.90240000
H       -0.61080000       1.98330000       0.86800000
H        0.62340000      -0.18430000       0.94150000
H       -0.92110000      -0.38350000       0.13850000
H        1.58570000      -1.01330000      -4.20130000
H        3.04480000      -1.20670000      -3.27060000
