16
Properties=species:S:1:pos:R:3 gdb_36557=T pbc="F F F"
C       -0.25900000      -0.14500000      -1.47580000
C        0.00040000       0.34860000      -0.41280000
C        0.30710000       0.94380000       0.88930000
C        1.43640000       1.87570000       0.85130000
C        2.36210000       2.64330000       0.83460000
C        3.48820000       3.56510000       0.76830000
C        4.05750000       3.66250000      -0.67150000
C        5.18790000       4.58410000      -0.75200000
N        6.08010000       5.31720000      -0.79410000
H       -0.48770000      -0.58100000      -2.41670000
H       -0.58360000       1.46240000       1.27000000
H        0.51550000       0.14430000       1.61360000
H        3.18430000       4.56410000       1.10080000
H        4.28610000       3.24290000       1.44700000
H        4.37740000       2.67260000      -1.01130000
H        3.27340000       3.99640000      -1.35820000
