22
Properties=species:S:1:pos:R:3 gdb_58046=T pbc="F F F"
C       -0.01700000       1.54700000      -0.00570000
C        0.04840000       0.01410000      -0.01980000
C        0.79590000      -0.48590000      -1.26240000
C        0.68860000      -0.53800000       1.28800000
C       -0.04280000      -0.04040000       2.46370000
N       -0.63000000       0.33640000       3.38560000
C        0.75830000      -2.06120000       1.35320000
C        2.00500000      -2.79470000       0.92520000
C        1.63070000      -2.73050000       2.38340000
H        0.98960000       1.98110000       0.02620000
H       -0.50710000       1.91610000      -0.91160000
H       -0.57360000       1.92230000       0.85710000
H       -0.97900000      -0.37240000      -0.05620000
H        1.84000000      -0.15060000      -1.25460000
H        0.79300000      -1.57540000      -1.33610000
H        0.32870000      -0.08420000      -2.16680000
H        1.71180000      -0.14150000       1.36010000
H       -0.19030000      -2.54660000       1.14100000
H        1.88900000      -3.73630000       0.40000000
H        2.85290000      -2.20520000       0.59240000
H        2.22210000      -2.09380000       3.03300000
H        1.25630000      -3.62650000       2.86440000
