18
Properties=species:S:1:pos:R:3 gdb_84857=T pbc="F F F"
C        0.04350000       1.58300000       0.02590000
C        0.12560000       0.05670000      -0.03910000
N        0.83350000      -0.34940000      -1.25340000
C        1.49650000      -1.42110000      -1.24780000
O        1.71430000      -2.30500000      -0.23470000
C        1.44800000      -1.87820000       1.09600000
C        2.62770000      -1.14040000       1.75590000
O        1.93230000       0.11890000       1.68110000
C        0.71150000      -0.52800000       1.24170000
H        1.04140000       2.00390000       0.16760000
H       -0.37170000       1.96850000      -0.90790000
H       -0.59010000       1.90710000       0.85800000
H       -0.89570000      -0.34510000      -0.12570000
H        1.98290000      -1.78390000      -2.15150000
H        1.03790000      -2.73970000       1.62320000
H        2.83240000      -1.43900000       2.79190000
H        3.55740000      -1.14560000       1.17730000
H       -0.03600000      -0.52480000       2.04650000
