19
Properties=species:S:1:pos:R:3 gdb_81435=T pbc="F F F"
C       -0.06440000       1.54530000       0.00710000
C       -0.05330000       0.02460000       0.01760000
C        1.12350000      -0.63210000      -0.75290000
O        1.99490000      -0.32150000       0.39640000
C        0.77160000      -0.62290000       1.16080000
C        0.66610000      -2.15800000       0.90750000
C        1.10010000      -3.16720000       1.92440000
O       -0.37640000      -2.52420000      -0.01910000
C        0.91590000      -2.15150000      -0.53420000
H        0.93450000       1.94880000       0.18800000
H       -0.42110000       1.92150000      -0.95780000
H       -0.73930000       1.93090000       0.77900000
H       -1.04180000      -0.39620000      -0.16130000
H        1.50740000      -0.27510000      -1.70850000
H        0.79090000      -0.25750000       2.18830000
H        0.40140000      -3.20190000       2.76760000
H        1.14790000      -4.16480000       1.48050000
H        2.08940000      -2.90640000       2.31410000
H        1.45800000      -2.91090000      -1.08750000
