19
Properties=species:S:1:pos:R:3 gdb_73155=T pbc="F F F"
C        0.06260000       1.65810000       0.10590000
C        0.07510000       0.15590000       0.12450000
O       -1.23890000      -0.42910000      -0.05120000
C       -1.04300000      -1.33470000       1.06510000
C        0.38320000      -0.81540000       1.29170000
O        1.37590000      -1.51000000       0.51490000
C        1.15800000      -0.63770000      -0.60740000
C        1.20140000      -1.11710000      -2.01420000
C        2.28280000      -0.18530000      -1.47900000
H        1.05740000       2.05920000       0.31930000
H       -0.25010000       2.02000000      -0.88040000
H       -0.64480000       2.04710000       0.84330000
H       -1.75170000      -1.12170000       1.87550000
H       -1.10810000      -2.38880000       0.77610000
H        0.72600000      -0.56330000       2.29600000
H        1.47260000      -2.15560000      -2.17000000
H        0.46750000      -0.72700000      -2.71150000
H        2.29850000       0.84540000      -1.81860000
H        3.25880000      -0.61440000      -1.27880000
