15
Properties=species:S:1:pos:R:3 gdb_19098=T pbc="F F F"
C       -0.01930000       1.52900000       0.14130000
C        1.50680000       1.45020000      -0.02220000
C        2.16710000       0.74960000       1.21950000
O        1.15970000       0.33490000       2.17130000
C        0.72320000      -0.66780000       1.22450000
C        0.03050000       0.00110000      -0.01720000
N        1.37960000       0.10070000      -0.74880000
C        2.04940000      -0.57750000       0.43460000
H       -0.41510000       1.93540000       1.07330000
H       -0.48920000       2.00460000      -0.72170000
H        2.07170000       2.24730000      -0.50890000
H        3.04780000       1.18440000       1.69280000
H        0.27370000      -1.53870000       1.70230000
H       -0.77860000      -0.55060000      -0.49910000
H        2.80670000      -1.34940000       0.30140000
