13
Properties=species:S:1:pos:R:3 gdb_4613=T pbc="F F F"
O       -0.00450000       1.37690000       0.00820000
C       -0.02030000       0.01820000       0.00120000
C       -1.18640000      -0.67800000       0.00420000
N       -1.13330000      -2.04730000      -0.00320000
C        0.04560000      -2.78470000      -0.01370000
N       -0.01290000      -4.06990000      -0.02010000
C        1.22170000      -1.91330000      -0.01590000
N        1.18780000      -0.61750000      -0.00900000
H        0.92700000       1.63060000       0.00430000
H       -2.16180000      -0.21280000       0.01220000
H       -1.98510000      -2.58930000      -0.00110000
H        0.92540000      -4.46470000      -0.02750000
H        2.19680000      -2.39700000      -0.02400000
