18
Properties=species:S:1:pos:R:3 gdb_50639=T pbc="F F F"
O        0.04000000      -0.06520000       0.14770000
C        0.05440000       1.11920000      -0.07020000
C        1.32460000       1.94360000      -0.13860000
C        1.35440000       2.84230000       1.15120000
C        2.70630000       3.53310000       1.27570000
O        2.81420000       4.72900000       1.41250000
C        3.88650000       2.58820000       1.16080000
C        3.75470000       1.75400000      -0.14320000
N        2.47390000       1.08790000      -0.29810000
H       -0.88520000       1.70250000      -0.18260000
H        1.24630000       2.62100000      -1.00260000
H        0.56360000       3.59660000       1.14280000
H        1.21420000       2.19250000       2.02540000
H        4.81440000       3.16510000       1.17960000
H        3.87950000       1.90520000       2.02030000
H        3.90440000       2.42480000      -0.99990000
H        4.54850000       1.00340000      -0.18980000
H        2.37550000       0.26020000       0.27900000
