12
Properties=species:S:1:pos:R:3 gdb_25449=T pbc="F F F"
O       -0.06150000      -0.05330000      -0.00200000
C       -0.04400000       1.14360000       0.00790000
N        1.14400000       1.89620000       0.00090000
C        2.43730000       1.39470000      -0.01790000
N        3.32570000       2.34230000      -0.01990000
C        2.59710000       3.53020000      -0.00170000
C        1.25340000       3.27390000       0.01110000
C        3.22100000       4.80640000       0.00200000
N        3.70640000       5.85670000       0.00540000
H       -0.93950000       1.78760000       0.02330000
H        2.62060000       0.33220000      -0.02890000
H        0.39390000       3.92250000       0.02620000
