18
Properties=species:S:1:pos:R:3 gdb_124992=T pbc="F F F"
C       -0.27840000       1.57140000       0.24420000
C       -0.02320000       0.10700000       0.07270000
C        0.13640000      -0.61800000      -1.07300000
C        0.13530000      -0.27150000      -2.52150000
C        1.50340000      -0.47150000      -3.18250000
O        1.36430000      -0.09480000      -4.54140000
O        0.34870000      -1.91730000      -0.76890000
N        0.33150000      -2.07930000       0.61240000
C        0.11100000      -0.88200000       1.09090000
H        0.52820000       2.05830000       0.80350000
H       -0.36000000       2.07650000      -0.72170000
H       -1.20880000       1.75540000       0.79250000
H       -0.59760000      -0.88770000      -3.05470000
H       -0.16840000       0.77160000      -2.64650000
H        2.25490000       0.14510000      -2.66490000
H        1.80800000      -1.52260000      -3.07860000
H        2.20020000      -0.25880000      -4.98720000
H        0.05080000      -0.75020000       2.16310000
