22
Properties=species:S:1:pos:R:3 gdb_119114=T pbc="F F F"
C       -0.37860000       1.45140000       2.16860000
C       -0.29410000      -0.07730000       2.16530000
C        0.86910000      -0.60660000       1.31080000
C        1.01230000      -2.12180000       1.29990000
C        2.41750000      -2.71390000       1.22920000
C        1.65080000      -2.78070000       2.51030000
C       -0.01510000      -2.98310000       0.60450000
N       -0.92820000      -2.33450000      -0.18380000
O       -0.03720000      -4.19590000       0.72980000
H       -0.53400000       1.84480000       1.15730000
H       -1.20670000       1.80320000       2.79140000
H        0.54330000       1.89970000       2.55600000
H       -0.17020000      -0.44400000       3.19130000
H       -1.23990000      -0.50020000       1.80780000
H        0.78560000      -0.21950000       0.28360000
H        1.80480000      -0.17970000       1.69300000
H        2.52710000      -3.63350000       0.66710000
H        3.24090000      -2.01290000       1.14520000
H        1.94400000      -2.12670000       3.32460000
H        1.24630000      -3.74310000       2.79750000
H       -0.81090000      -1.37490000      -0.45580000
H       -1.52230000      -2.91700000      -0.75170000
