23
Properties=species:S:1:pos:R:3 gdb_106273=T pbc="F F F"
C       -0.16170000       1.58290000      -0.00770000
C        0.01700000       0.07130000       0.02830000
C        1.18800000      -0.64400000      -0.73730000
C        1.43830000      -0.64580000      -2.22230000
C        2.15330000      -0.15390000       0.38820000
C        0.87210000      -0.64370000       1.12600000
C        0.62340000      -0.65030000       2.60670000
O        1.64340000      -1.42510000       3.22400000
C        0.90410000      -1.87620000       0.17600000
H        0.76410000       2.13650000       0.16780000
H       -0.55310000       1.89640000      -0.98240000
H       -0.88680000       1.90510000       0.74830000
H       -0.95440000      -0.41360000      -0.13680000
H        1.59240000       0.37110000      -2.60080000
H        2.33040000      -1.23180000      -2.47020000
H        0.59110000      -1.08010000      -2.76520000
H        3.05250000      -0.75430000       0.54730000
H        2.38920000       0.91130000       0.42920000
H        0.62470000       0.38510000       2.98650000
H       -0.37620000      -1.07110000       2.80810000
H        1.48750000      -1.42330000       4.17290000
H       -0.04570000      -2.39720000       0.01560000
H        1.72900000      -2.57750000       0.32300000
