18
Properties=species:S:1:pos:R:3 gdb_33095=T pbc="F F F"
C        0.03140000       1.52750000      -0.05550000
C        0.03600000       0.01030000      -0.00900000
O        0.64580000      -0.46860000      -1.19690000
C        0.72900000      -1.81890000      -1.30980000
C        0.30550000      -2.79410000      -0.43740000
N        0.62810000      -4.01690000      -1.02810000
C        1.23050000      -3.79800000      -2.22480000
O        1.61600000      -4.88300000      -2.94400000
C        1.31980000      -2.44510000      -2.45190000
H        1.05220000       1.91390000      -0.12370000
H       -0.52960000       1.88450000      -0.92380000
H       -0.43350000       1.93200000       0.84860000
H        0.59430000      -0.35580000       0.86640000
H       -0.98870000      -0.38520000       0.06580000
H       -0.18070000      -2.75020000       0.51990000
H        0.45080000      -4.92700000      -0.64320000
H        2.02220000      -4.57350000      -3.75890000
H        1.74460000      -1.94800000      -3.30870000
