19
Properties=species:S:1:pos:R:3 gdb_1810=T pbc="F F F"
C       -0.32990000       1.42420000       0.02680000
C        0.09180000      -0.04610000      -0.03820000
O        0.99050000      -0.27640000      -1.12350000
C        0.78590000      -0.53700000       1.22210000
C        2.08070000       0.16680000       1.58310000
C       -0.10500000      -1.02750000       2.33830000
C        0.68110000      -2.01460000       1.50880000
H        0.54150000       2.07870000       0.11780000
H       -0.87320000       1.70930000      -0.88220000
H       -0.99290000       1.60390000       0.87880000
H       -0.81670000      -0.65760000      -0.17480000
H        0.62660000       0.15070000      -1.90520000
H        1.91560000       1.21750000       1.84650000
H        2.55540000      -0.31470000       2.44350000
H        2.77960000       0.13340000       0.74270000
H        0.21440000      -0.84310000       3.35860000
H       -1.18090000      -0.98750000       2.19890000
H        0.13970000      -2.63470000       0.80230000
H        1.53310000      -2.50530000       1.96680000
