19
Properties=species:S:1:pos:R:3 gdb_104265=T pbc="F F F"
C        0.07830000       1.36020000      -0.01390000
O       -0.06780000      -0.02940000       0.19770000
C       -1.36660000      -0.55210000       0.06350000
C       -2.35360000       0.02460000       1.06810000
C       -1.83650000      -0.68410000      -1.42110000
N       -1.33860000      -2.07760000      -1.44140000
C       -1.24790000      -2.11690000       0.03190000
C       -0.03290000      -2.72720000       0.57250000
N        0.89940000      -3.24250000       1.01950000
H        1.15210000       1.55790000      -0.02410000
H       -0.34600000       1.68050000      -0.97610000
H       -0.38020000       1.95560000       0.78680000
H       -2.54920000       1.08310000       0.87170000
H       -3.31170000      -0.50010000       1.01780000
H       -1.95620000      -0.06990000       2.08360000
H       -2.92380000      -0.57620000      -1.52820000
H       -1.34100000      -0.03100000      -2.14560000
H       -1.95630000      -2.76880000      -1.85020000
H       -2.10940000      -2.57910000       0.53360000
