15
Properties=species:S:1:pos:R:3 gdb_34939=T pbc="F F F"
N       -0.11410000      -1.05380000      -0.01100000
C       -0.03560000       0.09850000       0.02850000
C        0.01990000       1.53790000       0.09030000
C        0.58520000       2.19900000       1.30230000
N        1.38110000       2.12380000       0.02310000
C        1.16180000       3.61000000      -0.16900000
C        0.40240000       3.69280000       1.16210000
C       -0.60420000       4.60430000       1.70680000
O        0.75630000       4.60080000       2.17590000
H       -0.78750000       2.03350000      -0.44530000
H        0.85850000       1.65180000       2.19730000
H        2.12170000       4.12750000      -0.12270000
H        0.63930000       3.86970000      -1.09400000
H       -0.89580000       5.48720000       1.14040000
H       -1.34260000       4.23550000       2.41670000
