15
Properties=species:S:1:pos:R:3 gdb_6362=T pbc="F F F"
N        0.17430000       1.20890000      -0.06400000
C       -0.34770000      -0.00010000       0.35430000
O       -0.61110000      -0.23470000       1.51800000
N       -0.49220000      -0.91430000      -0.67730000
C       -0.95120000      -2.23220000      -0.60840000
N       -0.88270000      -2.91890000      -1.67700000
C       -1.50910000      -2.74210000       0.71870000
O       -2.04910000      -4.04170000       0.57280000
H        0.11840000       1.93150000       0.63640000
H        0.02260000       1.51700000      -1.01140000
H       -0.11870000      -0.68890000      -1.58900000
H       -1.23220000      -3.85710000      -1.47820000
H       -0.70350000      -2.80360000       1.45410000
H       -2.23350000      -2.02810000       1.12310000
H       -2.91750000      -3.95940000       0.16570000
