20
Properties=species:S:1:pos:R:3 gdb_108836=T pbc="F F F"
C        0.06850000       1.53040000       0.28370000
C       -0.03480000       0.04800000      -0.11760000
C       -1.44230000      -0.46880000      -0.13020000
C       -2.14510000      -0.92030000      -1.17400000
C       -3.53040000      -1.42690000      -0.79680000
O       -3.72870000      -2.79300000      -1.12370000
C       -3.57260000      -1.17030000       0.71560000
N       -2.59450000      -2.03430000       1.41920000
C       -2.27040000      -0.60330000       1.11890000
H        1.11190000       1.86000000       0.28350000
H       -0.48920000       2.16330000      -0.41340000
H       -0.33300000       1.70570000       1.28730000
H        0.41020000      -0.09320000      -1.10840000
H        0.56160000      -0.55240000       0.58350000
H       -1.77020000      -1.01940000      -2.18710000
H       -4.32600000      -0.88120000      -1.31720000
H       -3.14670000      -3.27590000      -0.52010000
H       -4.50590000      -0.92370000       1.20840000
H       -2.87760000      -2.11320000       2.39470000
H       -2.16220000       0.08340000       1.95150000
