19
Properties=species:S:1:pos:R:3 gdb_126277=T pbc="F F F"
C        0.00960000       1.58270000      -0.09160000
C        0.03220000       0.05800000       0.11360000
C       -1.32720000      -0.57360000       0.05970000
C       -2.16290000      -0.84310000      -1.01500000
C       -2.66850000      -0.97170000      -2.44960000
C       -3.95880000      -1.62030000      -1.79910000
N       -3.28140000      -1.38950000      -0.51690000
N       -3.31670000      -1.53980000       0.81000000
C       -2.11920000      -1.03150000       1.15490000
H        1.01910000       2.00290000      -0.03570000
H       -0.41010000       1.84050000      -1.06950000
H       -0.60660000       2.06930000       0.67080000
H        0.68700000      -0.39520000      -0.64100000
H        0.48870000      -0.16810000       1.08410000
H       -2.85250000      -0.03500000      -2.98080000
H       -2.10380000      -1.64720000      -3.09650000
H       -4.88800000      -1.05770000      -1.92100000
H       -4.12510000      -2.67530000      -2.03140000
H       -1.84150000      -1.00680000       2.20000000
