20
Properties=species:S:1:pos:R:3 gdb_73205=T pbc="F F F"
C       -0.07890000       1.52110000      -0.00340000
C       -0.02150000       0.00870000       0.05400000
C       -1.28820000      -0.79800000       0.44550000
C       -0.38280000      -1.76940000       1.25110000
C        0.74080000      -0.69330000       1.21440000
C        2.17740000      -1.09540000       0.91210000
N        2.39980000      -1.53660000      -0.45970000
C        1.56390000      -1.18880000      -1.34070000
O        0.42620000      -0.45990000      -1.24050000
H        0.92050000       1.94310000      -0.15270000
H       -0.71350000       1.85030000      -0.83220000
H       -0.48800000       1.92290000       0.92850000
H       -1.95000000      -0.21450000       1.09140000
H       -1.86310000      -1.20040000      -0.39060000
H       -0.73260000      -2.08160000       2.23690000
H       -0.11490000      -2.66000000       0.67650000
H        0.69570000      -0.06680000       2.11070000
H        2.85260000      -0.25020000       1.10740000
H        2.50010000      -1.89820000       1.58660000
H        1.70510000      -1.48310000      -2.38000000
