22
Properties=species:S:1:pos:R:3 gdb_113566=T pbc="F F F"
C       -0.28830000       1.50290000       0.17680000
C        0.26660000       0.11150000      -0.14870000
C        0.98110000      -0.50810000       1.03150000
N        0.13230000      -1.12480000       2.06690000
C        1.05210000      -1.97620000       1.27040000
C        0.45330000      -3.05050000       0.34980000
C        1.20110000      -4.36580000       0.71000000
C        2.31790000      -3.90940000       1.61950000
C        2.23020000      -2.61250000       1.91470000
H        0.51370000       2.19490000       0.45800000
H       -0.81300000       1.93310000      -0.68180000
H       -0.99170000       1.44620000       1.01320000
H       -0.55160000      -0.54770000      -0.45640000
H        0.96210000       0.17320000      -0.99610000
H        1.83910000       0.06850000       1.38260000
H        0.52040000      -0.96440000       2.99430000
H       -0.62600000      -3.12450000       0.49540000
H        0.62650000      -2.79180000      -0.69950000
H        0.55100000      -5.08750000       1.22200000
H        1.57970000      -4.88050000      -0.18080000
H        3.08160000      -4.58450000       1.98930000
H        2.90400000      -2.05860000       2.56070000
