17
Properties=species:S:1:pos:R:3 gdb_117440=T pbc="F F F"
O       -0.36550000       1.45600000       0.01340000
C       -0.03570000       0.07490000       0.00330000
C       -1.35580000      -0.68380000       0.01080000
C       -1.19230000      -2.17740000       0.00120000
N       -0.06160000      -2.74530000      -0.01270000
O       -2.43280000      -2.76530000       0.00990000
C       -2.47550000      -4.18050000       0.00260000
C       -3.87750000      -4.59870000       0.01410000
N       -4.97100000      -4.96760000       0.02290000
H        0.45440000       1.95770000       0.01000000
H        0.54610000      -0.20090000      -0.88700000
H        0.56140000      -0.21020000       0.88050000
H       -1.94370000      -0.39910000       0.89100000
H       -1.95890000      -0.38970000      -0.85600000
H       -0.09640000      -3.76230000      -0.01790000
H       -1.98740000      -4.58870000      -0.89310000
H       -1.97000000      -4.59840000       0.88410000
