15
Properties=species:S:1:pos:R:3 gdb_34078=T pbc="F F F"
C        0.02570000      -1.19330000      -0.03550000
C        0.00550000       0.00690000       0.02100000
C        0.02630000       1.44620000       0.05990000
C       -0.40060000       2.26220000      -1.22680000
C        0.77690000       3.19400000      -0.95340000
C        1.38870000       2.23660000      -0.00390000
N        0.94430000       3.53090000       0.51820000
C       -0.21570000       3.22220000       1.30200000
N       -0.73490000       2.06950000       1.17000000
H        0.03090000      -2.25450000      -0.07440000
H       -0.20810000       1.68030000      -2.13000000
H       -1.42120000       2.65210000      -1.22620000
H        1.23070000       3.89700000      -1.63950000
H        2.40100000       1.88370000       0.15260000
H       -0.60130000       3.98430000       1.97100000
