16
Properties=species:S:1:pos:R:3 gdb_130178=T pbc="F F F"
N       -0.06590000       1.39650000      -0.15440000
C        0.04690000       0.01030000      -0.04300000
N       -1.03890000      -0.76520000      -0.05350000
N       -0.55910000      -2.04730000      -0.02180000
C        0.78450000      -2.06590000       0.03030000
C        1.22520000      -0.77230000       0.01530000
C        2.71920000      -0.77140000       0.03220000
O        3.07100000      -2.17150000       0.10520000
C        1.92460000      -3.02900000       0.06110000
H        0.56930000       1.89950000       0.45080000
H       -1.01840000       1.70080000       0.00410000
H       -1.21570000      -2.80690000      -0.02470000
H        3.16900000      -0.33610000      -0.87210000
H        3.16070000      -0.26030000       0.89990000
H        1.92550000      -3.68420000       0.94450000
H        1.97120000      -3.67260000      -0.83070000
