16
Properties=species:S:1:pos:R:3 gdb_44599=T pbc="F F F"
N       -0.06900000       1.25820000       0.15860000
C       -0.02150000       0.01660000      -0.03720000
O        1.13210000      -0.71810000      -0.21920000
C        0.79050000      -2.00030000      -0.72310000
C        0.04370000      -2.95530000       0.17750000
C       -0.40000000      -2.43860000       1.54180000
O       -1.38860000      -1.43630000       1.29200000
C       -1.20470000      -0.95000000      -0.03800000
C       -0.69180000      -2.13390000      -0.86410000
H        0.86930000       1.66360000       0.16080000
H        1.50710000      -2.35940000      -1.45080000
H        0.20520000      -4.01760000       0.03760000
H       -0.86120000      -3.22780000       2.14300000
H        0.44060000      -2.01360000       2.10660000
H       -2.12990000      -0.48090000      -0.36620000
H       -1.21390000      -2.52580000      -1.72550000
