23
Properties=species:S:1:pos:R:3 gdb_85669=T pbc="F F F"
C       -1.23530000       0.87820000      -0.11000000
C       -0.06270000      -0.09020000      -0.15160000
C        1.24260000       0.33300000      -0.87100000
C        2.05110000      -0.45140000       0.20640000
C        3.31330000       0.08080000       0.67360000
C        4.35470000       0.53690000       1.06860000
C        0.77590000      -0.39890000       1.14200000
C        0.82830000       0.76440000       2.13330000
C        0.44270000      -1.70240000       1.86020000
H       -0.93990000       1.85810000       0.27760000
H       -1.64410000       1.03100000      -1.11520000
H       -2.04790000       0.49920000       0.52010000
H       -0.40420000      -1.04620000      -0.56750000
H        1.38030000       0.02740000      -1.91060000
H        1.42350000       1.40850000      -0.79540000
H        2.19480000      -1.48510000      -0.12870000
H        5.27700000       0.93570000       1.41140000
H        1.08580000       1.71230000       1.65240000
H       -0.13790000       0.89060000       2.63340000
H        1.58520000       0.57610000       2.90090000
H        1.18680000      -1.92990000       2.63230000
H       -0.53520000      -1.64080000       2.35240000
H        0.41270000      -2.54650000       1.16280000
