18
Properties=species:S:1:pos:R:3 gdb_109117=T pbc="F F F"
C       -0.01900000       1.44650000       0.03880000
N       -0.00320000       0.00120000       0.05520000
C       -0.01390000      -0.75510000      -1.10950000
O       -0.03890000      -0.30570000      -2.23470000
C        0.01220000      -2.22040000      -0.66010000
C        0.03800000      -2.12960000       0.84030000
C        0.02800000      -0.83920000       1.19090000
C        0.04410000      -0.23550000       2.55870000
O        0.07840000      -1.28090000       3.50690000
H        0.87810000       1.86920000       0.50570000
H       -0.04660000       1.74680000      -1.01040000
H       -0.90240000       1.84970000       0.54730000
H       -0.86700000      -2.73880000      -1.06080000
H        0.88880000      -2.71730000      -1.09250000
H        0.06070000      -2.95770000       1.52900000
H        0.91910000       0.43070000       2.65600000
H       -0.84760000       0.40250000       2.68890000
H        0.08520000      -0.88850000       4.38420000
