21
Properties=species:S:1:pos:R:3 gdb_26421=T pbc="F F F"
C       -0.11210000       1.53840000      -0.10750000
C        0.01410000       0.01230000      -0.03990000
C        0.76180000      -0.54230000      -1.25930000
C        0.71650000      -0.45770000       1.24910000
N        0.01650000      -0.10870000       2.47630000
C        0.23820000       0.98860000       3.28250000
C       -0.69230000       0.90820000       4.28530000
N       -1.48180000      -0.20560000       4.12270000
C       -1.03020000      -0.78550000       3.03330000
H        0.87720000       2.01190000      -0.13480000
H       -0.64790000       1.84170000      -1.01240000
H       -0.65420000       1.93730000       0.75390000
H       -0.99710000      -0.41620000      -0.02990000
H        1.78540000      -0.15150000      -1.30390000
H        0.82210000      -1.63550000      -1.23440000
H        0.25880000      -0.25530000      -2.18750000
H        0.83220000      -1.54660000       1.22640000
H        1.72380000      -0.03030000       1.30360000
H        1.02540000       1.69280000       3.06900000
H       -0.83300000       1.58270000       5.11630000
H       -1.40870000      -1.69990000       2.59930000
