15
Properties=species:S:1:pos:R:3 gdb_123706=T pbc="F F F"
C       -0.01200000       1.47150000       0.10440000
C        1.28730000       0.73240000       0.00960000
O        2.03060000       0.48680000       1.20860000
C        1.24350000      -0.34110000       1.95210000
C        1.26370000      -0.97350000       3.16840000
N        0.09940000      -1.70720000       3.17360000
N       -0.65650000      -1.57290000       2.05840000
C        0.05280000      -0.73150000       1.32040000
C       -0.02800000      -0.05400000       0.00970000
H       -0.28980000       1.92490000       1.04930000
H       -0.31540000       2.02360000      -0.77860000
H        1.93770000       0.83920000      -0.84880000
H        1.95580000      -0.99240000       3.99260000
H       -0.22490000      -2.31590000       3.90430000
H       -0.42300000      -0.54210000      -0.87260000
