14
Properties=species:S:1:pos:R:3 gdb_42624=T pbc="F F F"
O       -0.00600000       0.00110000      -0.00040000
C       -0.03060000       1.20220000      -0.00060000
C       -1.19370000       2.12560000       0.01790000
C       -1.20720000       3.40350000       0.89910000
C        0.18940000       3.72810000       1.41440000
N        0.73150000       3.49480000       0.00450000
C       -0.67660000       3.45970000      -0.49050000
C        1.22080000       2.13610000      -0.02950000
O        2.36340000       1.79960000       0.04600000
H       -2.16870000       1.75880000      -0.27650000
H       -2.15470000       3.75880000       1.28480000
H        0.31060000       4.78020000       1.68080000
H        0.63210000       3.09720000       2.19120000
H       -0.98180000       3.96490000      -1.39660000
