21
Properties=species:S:1:pos:R:3 gdb_78263=T pbc="F F F"
C        0.01010000       1.51580000       0.03030000
C        0.01160000       0.00080000       0.02070000
C        1.35050000      -0.65600000      -0.21990000
C        0.73530000      -0.66150000       1.16770000
C        0.75040000      -2.21790000       1.18940000
C        1.20800000      -2.93640000       2.42720000
C        0.05340000      -2.89720000       0.05990000
O       -1.23180000      -2.58100000      -0.40780000
C        1.35550000      -2.20360000      -0.24640000
H        0.94540000       1.91340000       0.44070000
H       -0.10500000       1.91650000      -0.98280000
H       -0.81260000       1.90430000       0.64030000
H       -0.88720000      -0.45720000      -0.36700000
H        2.20730000      -0.08600000      -0.55790000
H        1.05740000      -0.09920000       2.03620000
H        0.45980000      -2.85550000       3.22620000
H        1.37620000      -4.00030000       2.23320000
H        2.14390000      -2.51200000       2.80960000
H        0.21440000      -3.97820000       0.11820000
H       -1.24470000      -2.75400000      -1.35590000
H        2.20490000      -2.76440000      -0.62200000
