15
Properties=species:S:1:pos:R:3 gdb_7751=T pbc="F F F"
C        0.05570000       1.45940000      -0.05430000
C       -0.14640000      -0.01960000       0.02400000
N       -1.23050000      -0.59770000      -0.26150000
C       -1.27950000      -2.04620000      -0.12360000
C        0.08360000      -2.69730000      -0.38570000
C        1.16060000      -2.00620000       0.41330000
O        2.10590000      -2.51660000       0.93500000
O        1.01260000      -0.63640000       0.49480000
H        0.87500000       1.69400000      -0.74150000
H       -0.86260000       1.93540000      -0.39520000
H        0.33660000       1.85310000       0.92770000
H       -1.63510000      -2.29110000       0.88720000
H       -2.02670000      -2.43960000      -0.81840000
H        0.10410000      -3.76220000      -0.14860000
H        0.34090000      -2.58380000      -1.44700000
