21
Properties=species:S:1:pos:R:3 gdb_108612=T pbc="F F F"
C        0.11270000       1.55020000       0.09550000
C        0.07330000       0.05930000      -0.03540000
C       -0.05480000      -0.69900000      -1.13360000
C       -0.16600000      -0.25230000      -2.56020000
O        0.82900000      -0.85030000      -3.39320000
C       -0.11900000      -2.17670000      -0.79630000
C        0.33590000      -2.22990000       0.67620000
C        0.11520000      -0.80030000       1.22090000
O        1.07640000      -0.38390000       2.18450000
H        0.23660000       2.05860000      -0.86350000
H       -0.81210000       1.92410000       0.55490000
H        0.92660000       1.85120000       0.76320000
H       -1.12200000      -0.58140000      -2.98650000
H       -0.13940000       0.84360000      -2.63670000
H        1.68610000      -0.59620000      -3.03520000
H       -1.14840000      -2.54570000      -0.91150000
H        0.49840000      -2.78040000      -1.46840000
H       -0.17340000      -2.99420000       1.26760000
H        1.41020000      -2.44720000       0.72730000
H       -0.84010000      -0.72080000       1.75870000
H        1.94640000      -0.47480000       1.77920000
