18
Properties=species:S:1:pos:R:3 gdb_118333=T pbc="F F F"
C       -0.01270000       1.46310000      -0.02880000
O        0.05890000       0.05520000      -0.00100000
C        0.63190000      -0.48800000      -1.17280000
C        0.62110000      -2.00560000      -1.01520000
C       -0.79610000      -2.54010000      -0.84890000
O       -1.09160000      -3.71240000      -0.84190000
C        1.42200000      -2.69010000      -2.14470000
N        1.38670000      -4.04790000      -2.12030000
O        2.06540000      -2.03640000      -2.94270000
H        0.98530000       1.91700000      -0.12500000
H       -0.63530000       1.82270000      -0.86260000
H       -0.46060000       1.78580000       0.91380000
H        0.05660000      -0.19060000      -2.06520000
H        1.65940000      -0.13490000      -1.32260000
H        1.12850000      -2.25250000      -0.07080000
H       -1.56850000      -1.75920000      -0.70940000
H        0.64040000      -4.50100000      -1.60910000
H        1.80140000      -4.52410000      -2.90630000
