19
Properties=species:S:1:pos:R:3 gdb_36640=T pbc="F F F"
C       -0.08920000      -1.16280000      -0.14450000
C        0.03650000       0.01450000       0.05520000
C        0.15980000       1.44210000       0.31820000
O        1.31100000       1.95580000      -0.32930000
C        1.43510000       3.34520000      -0.19310000
C        2.06090000       3.95670000       1.10600000
C        3.41570000       3.33430000       0.65090000
C        2.78660000       3.94360000      -0.64090000
C        2.41040000       5.18490000       0.21960000
H       -0.19480000      -2.20360000      -0.32650000
H       -0.74440000       1.96360000      -0.03930000
H        0.21540000       1.61520000       1.40510000
H        0.53060000       3.85080000      -0.56440000
H        1.63840000       3.97280000       2.11170000
H        4.31850000       3.82480000       1.02390000
H        3.49440000       2.24850000       0.68730000
H        3.19790000       3.93550000      -1.65060000
H        1.57830000       5.80230000      -0.13190000
H        3.24640000       5.79740000       0.56300000
