19
Properties=species:S:1:pos:R:3 gdb_96510=T pbc="F F F"
C        0.01580000       1.62230000      -0.01410000
C       -0.01500000       0.09260000       0.04180000
C        0.52070000      -0.49750000      -1.28500000
O        1.00620000      -1.83030000      -1.22500000
C        0.26500000      -2.76720000      -0.49460000
O        0.72330000      -2.90350000       0.82370000
C        0.37480000      -1.86540000       1.72300000
C        0.76030000      -0.45130000       1.24750000
O        1.58590000       0.20160000       1.83870000
H        1.04790000       1.98080000      -0.00660000
H       -0.47800000       1.98710000      -0.92030000
H       -0.49330000       2.05800000       0.84940000
H       -1.05240000      -0.24410000       0.16450000
H       -0.26350000      -0.41140000      -2.05190000
H        1.37710000       0.09740000      -1.61660000
H       -0.81370000      -2.53290000      -0.51790000
H        0.44220000      -3.73950000      -0.96020000
H       -0.71080000      -1.87860000       1.92360000
H        0.91100000      -2.06720000       2.65140000
