18
Properties=species:S:1:pos:R:3 gdb_12889=T pbc="F F F"
C       -0.00830000       1.55270000      -0.09610000
C        0.11800000       0.04880000      -0.06610000
C        1.46120000      -0.65890000      -0.16310000
O        2.60380000       0.13300000       0.08100000
C        2.73790000       0.15560000       1.49070000
O        1.43260000       0.08750000       2.03020000
C        0.68770000      -0.71300000       1.12110000
C        0.03840000      -1.92060000       1.73480000
H       -0.01050000       1.92090000      -1.12720000
H       -0.94140000       1.87260000       0.37900000
H        0.81880000       2.02870000       0.43180000
H       -0.68200000      -0.48750000      -0.57430000
H        1.62380000      -1.50650000      -0.82170000
H        3.34150000      -0.70440000       1.83120000
H        3.20630000       1.09630000       1.79360000
H       -0.70750000      -1.62310000       2.47950000
H       -0.46770000      -2.51600000       0.96920000
H        0.78050000      -2.55470000       2.23120000
