19
Properties=species:S:1:pos:R:3 gdb_37478=T pbc="F F F"
C       -0.02440000       1.39570000      -0.00040000
C        1.40070000       1.96210000       0.01520000
C        2.24880000       1.32630000       1.12170000
C        2.22040000       1.88280000       2.55180000
O        0.91420000       1.66670000       3.10650000
C        1.84440000       0.57510000       3.10890000
C        1.77080000      -0.06820000       1.71030000
C        0.37840000      -0.54640000       1.25990000
O        0.00390000      -0.02340000      -0.00470000
H       -0.59660000       1.76220000       0.86370000
H       -0.54610000       1.69530000      -0.91430000
H        1.85960000       1.74560000      -0.95610000
H        1.37470000       3.05350000       0.12290000
H        3.29170000       1.23850000       0.80310000
H        2.80120000       2.69450000       2.97580000
H        2.06820000       0.12140000       4.06730000
H        2.53050000      -0.83760000       1.55770000
H        0.35150000      -1.63450000       1.15140000
H       -0.36950000      -0.25600000       2.01250000
