19
Properties=species:S:1:pos:R:3 gdb_119854=T pbc="F F F"
O       -0.09940000       1.45990000      -0.10800000
C        0.03150000       0.04810000      -0.08960000
C       -1.36880000      -0.54180000       0.10040000
C       -1.37900000      -2.04020000       0.08350000
C       -1.62190000      -2.86920000       1.10640000
C       -1.53260000      -4.33150000       0.72070000
C       -1.25980000      -4.27060000      -0.77770000
O       -2.29620000      -3.64600000      -1.53700000
C       -1.14560000      -2.85320000      -1.15800000
H        0.77640000       1.84300000      -0.21220000
H        0.47370000      -0.32300000      -1.02860000
H        0.68270000      -0.28790000       0.73250000
H       -1.77150000      -0.17140000       1.04860000
H       -2.00990000      -0.14620000      -0.69770000
H       -1.90070000      -2.54970000       2.10520000
H       -0.72090000      -4.84770000       1.25010000
H       -2.45620000      -4.88020000       0.94190000
H       -0.72860000      -5.07250000      -1.28360000
H       -0.54890000      -2.49100000      -1.99050000
