13
Properties=species:S:1:pos:R:3 gdb_868=T pbc="F F F"
C       -0.06020000       1.50470000       0.05050000
C       -0.00580000       0.01940000      -0.03410000
C       -0.02720000      -0.85400000      -1.08310000
N        0.04860000      -2.17250000      -0.65100000
C        0.11440000      -2.08020000       0.64670000
O        0.20190000      -3.09170000       1.52870000
N        0.08720000      -0.79850000       1.09470000
H        0.83520000       1.92980000       0.52200000
H       -0.13330000       1.92540000      -0.95520000
H       -0.92840000       1.85950000       0.62070000
H       -0.09290000      -0.61650000      -2.13410000
H        0.20620000      -3.90310000       1.00560000
H        0.12720000      -0.50790000       2.05680000
