20
Properties=species:S:1:pos:R:3 gdb_105347=T pbc="F F F"
C       -0.17230000       1.52420000       0.23010000
C       -0.20000000      -0.00230000       0.07950000
C        0.61690000      -0.50370000      -1.11250000
C        2.15470000      -0.31870000      -1.15990000
C        2.23880000      -1.83640000      -1.30520000
C        1.58370000      -2.51750000      -0.17490000
N        0.72690000      -2.01360000      -1.26750000
C       -0.07060000      -0.06140000      -2.39960000
O        0.39170000       0.68280000      -3.22360000
H        0.84920000       1.88840000       0.38030000
H       -0.57280000       2.02790000      -0.65520000
H       -0.76860000       1.83740000       1.09160000
H        0.17560000      -0.46600000       0.99710000
H       -1.23400000      -0.35330000      -0.03770000
H        2.46360000       0.24340000      -2.04160000
H        2.63720000       0.10090000      -0.27270000
H        2.84410000      -2.36530000      -2.03380000
H        1.61130000      -3.60260000      -0.14920000
H        1.55840000      -2.04710000       0.80460000
H       -1.07940000      -0.51530000      -2.52110000
