20
Properties=species:S:1:pos:R:3 gdb_119927=T pbc="F F F"
C       -0.12010000       1.53950000       0.04080000
C       -0.18290000       0.02540000      -0.17460000
C        0.94720000      -0.48930000      -1.07740000
C        0.90310000      -1.99300000      -1.24750000
C        0.03390000      -2.63030000      -2.28270000
O       -0.70460000      -1.77390000      -3.08550000
C        1.55860000      -2.68550000      -2.44980000
C        2.15490000      -1.91600000      -3.50060000
N        2.62500000      -1.31440000      -4.37080000
H        0.82330000       1.83460000       0.51350000
H       -0.19470000       2.07640000      -0.91110000
H       -0.93660000       1.88380000       0.68280000
H       -0.13790000      -0.48640000       0.79620000
H       -1.14500000      -0.24710000      -0.62400000
H        0.88030000      -0.00650000      -2.05620000
H        1.91970000      -0.20860000      -0.65340000
H        1.00850000      -2.55750000      -0.32450000
H       -0.44560000      -3.57980000      -2.04600000
H       -0.65740000      -2.07690000      -3.99920000
H        2.04200000      -3.64030000      -2.27090000
