24
Properties=species:S:1:pos:R:3 gdb_118837=T pbc="F F F"
C        0.96940000       1.43220000      -0.32600000
C        0.00310000       0.24490000      -0.41370000
C        0.51600000      -0.82530000      -1.35180000
N        1.55660000      -1.74350000      -0.83290000
C        0.24530000      -2.28420000      -1.23040000
C       -0.60260000      -2.87210000      -0.12190000
C        0.18090000      -3.10680000      -2.50880000
O        1.08010000      -2.59110000      -3.46530000
C        1.09630000      -3.32430000      -4.66680000
H        1.94850000       1.09990000       0.03250000
H        1.11260000       1.90110000      -1.30620000
H        0.59690000       2.19970000       0.35950000
H       -0.14610000      -0.17410000       0.58570000
H       -0.97930000       0.58850000      -0.76440000
H        0.66800000      -0.48090000      -2.37350000
H        2.22450000      -1.93280000      -1.57750000
H       -0.47490000      -2.31640000       0.80750000
H       -1.66580000      -2.86450000      -0.38860000
H       -0.31240000      -3.91120000       0.07330000
H        0.43600000      -4.15750000      -2.28140000
H       -0.84930000      -3.10500000      -2.90550000
H        1.39150000      -4.37200000      -4.50020000
H        0.11180000      -3.31930000      -5.15960000
H        1.82580000      -2.85150000      -5.32870000
