17
Properties=species:S:1:pos:R:3 gdb_124725=T pbc="F F F"
C       -0.02690000       1.66680000       0.78670000
C       -0.09430000       0.42230000      -0.10230000
N        0.82200000      -0.67600000       0.31600000
H        0.76060000      -0.79030000       1.32600000
H       -0.10020000      -2.23220000      -0.32440000
H        1.78420000      -0.42030000       0.11560000
C       -1.47340000      -0.16620000      -0.17390000
C       -1.77840000      -1.50030000      -0.36880000
O       -1.00800000      -2.58200000      -0.49960000
N       -3.12550000      -1.53750000      -0.39900000
N       -3.65170000      -0.28780000      -0.23500000
N       -2.64590000       0.52370000      -0.09960000
H        0.97780000       2.10160000       0.76890000
H       -0.74360000       2.41740000       0.44480000
H       -0.28270000       1.41450000       1.82160000
H        0.23110000       0.70290000      -1.11410000
H       -3.73020000      -2.33410000      -0.51530000
