20
Properties=species:S:1:pos:R:3 gdb_65983=T pbc="F F F"
C        0.04800000       1.61230000      -0.14050000
C       -0.02870000       0.09190000       0.01780000
C        0.94010000      -0.71570000      -0.89140000
O        1.70100000      -1.14290000       0.28370000
C        0.86520000      -0.44950000       1.12730000
N        0.88630000      -0.32600000       2.37650000
C       -1.46520000      -0.39380000       0.02800000
C       -1.87180000      -1.71120000       0.64020000
C       -2.27560000      -0.41490000       1.29930000
H        1.08450000       1.96140000      -0.17580000
H       -0.45180000       1.92730000      -1.06300000
H       -0.44750000       2.10240000       0.70170000
H        0.50700000      -1.57650000      -1.40550000
H        1.56880000      -0.13300000      -1.56960000
H        1.66460000      -0.84210000       2.79080000
H       -2.00440000      -0.10790000      -0.87290000
H       -2.62940000      -2.29480000       0.12920000
H       -1.11210000      -2.30380000       1.13810000
H       -1.76120000      -0.15370000       2.21710000
H       -3.31420000      -0.10770000       1.24830000
