18
Properties=species:S:1:pos:R:3 gdb_31809=T pbc="F F F"
C       -0.05860000       1.56080000      -0.04690000
C        0.01000000       0.02470000       0.01070000
C        0.73530000      -0.49280000       1.22680000
C        2.11020000      -0.73170000       1.24480000
N        2.77700000      -1.16060000       2.31210000
C        2.04130000      -1.35910000       3.41860000
N        2.71230000      -1.74220000       4.54640000
N        0.71260000      -1.19400000       3.52900000
C        0.09140000      -0.76450000       2.43480000
H        0.94520000       1.99740000      -0.06470000
H       -0.59150000       1.89650000      -0.94230000
H       -0.57800000       1.96310000       0.82880000
H       -1.00790000      -0.38280000      -0.00650000
H        0.50510000      -0.34850000      -0.89380000
H        2.70330000      -0.57690000       0.34330000
H        3.64030000      -2.10790000       4.41440000
H        2.15640000      -2.13200000       5.28890000
H       -0.98800000      -0.63680000       2.51910000
