18
Properties=species:S:1:pos:R:3 gdb_69095=T pbc="F F F"
C       -0.01020000       1.51710000      -0.04880000
C       -0.08680000       0.02290000       0.08300000
C       -1.33320000      -0.74310000      -0.33500000
C       -1.10050000      -2.18450000       0.17310000
C       -0.19540000      -2.04360000       1.42000000
C        0.59020000      -0.77310000       1.13860000
O        1.12250000      -0.70780000      -0.19440000
C        1.39650000      -0.17390000       2.17410000
N        2.02280000       0.29320000       3.02640000
H        0.91710000       1.90080000       0.38190000
H       -0.04530000       1.80420000      -1.10490000
H       -0.85660000       1.99170000       0.45760000
H       -2.20310000      -0.28120000       0.14710000
H       -1.49650000      -0.69860000      -1.41620000
H       -2.03390000      -2.70410000       0.39910000
H       -0.57680000      -2.76140000      -0.59120000
H       -0.77900000      -1.90120000       2.33650000
H        0.45680000      -2.90770000       1.57260000
