20
Properties=species:S:1:pos:R:3 gdb_118800=T pbc="F F F"
C        0.01130000       1.59240000      -0.05770000
C        0.18640000       0.07180000      -0.08110000
C        0.50240000      -0.50930000       1.30430000
C        0.67610000      -2.01440000       1.29070000
O       -0.46890000      -2.74570000       0.94430000
C        2.00220000      -2.63300000       0.94890000
C        1.46810000      -2.71360000       2.38110000
C        2.10310000      -1.96790000       3.42900000
N        2.61530000      -1.35970000       4.26990000
H        0.92150000       2.08900000       0.29540000
H       -0.21680000       1.98120000      -1.05460000
H       -0.80530000       1.88540000       0.61080000
H       -0.73230000      -0.38860000      -0.46820000
H        0.98890000      -0.19710000      -0.78050000
H        1.41090000      -0.04370000       1.70160000
H       -0.30810000      -0.26300000       2.00140000
H       -0.62540000      -2.62410000       0.00140000
H        2.00090000      -3.56360000       0.39370000
H        2.85130000      -1.98260000       0.77310000
H        1.06360000      -3.67260000       2.68440000
