21
Properties=species:S:1:pos:R:3 gdb_109319=T pbc="F F F"
C        0.19080000       1.44830000      -0.19670000
C       -0.12960000      -0.02520000       0.11170000
C        0.61320000      -0.56180000       1.29750000
C        0.10430000      -0.99320000       2.45220000
C        1.15630000      -1.42330000       3.44400000
C        2.42560000      -1.53340000       2.56880000
C        2.14690000      -0.61710000       1.33980000
C        2.77620000      -1.07700000       0.10680000
C        3.29180000      -1.46130000      -0.90980000
H        1.25090000       1.58210000      -0.43370000
H       -0.38710000       1.79640000      -1.05820000
H       -0.05030000       2.09100000       0.65620000
H       -1.20570000      -0.14220000       0.28070000
H        0.12200000      -0.62790000      -0.77070000
H       -0.95600000      -1.00080000       2.68390000
H        1.27340000      -0.67280000       4.23940000
H        0.91560000      -2.36670000       3.94670000
H        3.34500000      -1.25750000       3.09040000
H        2.54120000      -2.56110000       2.21390000
H        2.52380000       0.39690000       1.54600000
H        3.75130000      -1.79970000      -1.80500000
