13
Properties=species:S:1:pos:R:3 gdb_8784=T pbc="F F F"
C        0.04990000       1.54860000       0.00890000
C       -0.03710000       0.02480000       0.00310000
C       -1.45430000      -0.48690000       0.01300000
O       -2.45050000       0.19240000       0.02510000
C       -1.61680000      -2.02260000       0.00690000
O       -0.68990000      -2.78980000      -0.00500000
C       -3.01420000      -2.49230000       0.01770000
N       -4.09080000      -2.91320000       0.02560000
H        1.09440000       1.86920000       0.00160000
H       -0.44860000       1.97290000      -0.86630000
H       -0.43410000       1.96540000       0.89580000
H        0.46570000      -0.41420000      -0.86930000
H        0.48030000      -0.42150000       0.86320000
