21
Properties=species:S:1:pos:R:3 gdb_82874=T pbc="F F F"
C       -0.19700000       1.63430000      -0.06040000
C        0.04140000       0.13040000      -0.02760000
C        1.11400000      -0.57320000      -0.91620000
C        2.42350000       0.12020000      -0.49900000
C        2.34050000      -0.39980000       0.94950000
O        2.48140000      -1.83490000       0.72370000
C        1.14790000      -1.74620000       0.19840000
C        0.43220000      -3.04640000      -0.00370000
C        0.77770000      -0.56580000       1.13090000
H        0.70480000       2.21260000       0.15850000
H       -0.56870000       1.95400000      -1.04040000
H       -0.95010000       1.91580000       0.68400000
H       -0.91870000      -0.38260000      -0.16380000
H        0.93620000      -0.77530000      -1.97200000
H        3.31350000      -0.28160000      -0.98710000
H        2.40490000       1.20550000      -0.61430000
H        3.00260000      -0.00880000       1.72050000
H        0.40320000      -3.62240000       0.92600000
H       -0.59470000      -2.87750000      -0.34190000
H        0.94370000      -3.64740000      -0.76340000
H        0.38570000      -0.69160000       2.13990000
