17
Properties=species:S:1:pos:R:3 gdb_126987=T pbc="F F F"
C        0.00570000       1.47480000       0.04560000
C        0.02130000      -0.03990000       0.00010000
O        0.66920000      -0.50000000       1.20360000
C        0.81230000      -1.81500000       1.36020000
C        1.46890000      -2.49480000       2.35000000
N        2.21760000      -1.99040000       3.43680000
C        1.28500000      -3.84440000       1.95610000
N        0.58310000      -3.97820000       0.85410000
O        0.29230000      -2.65550000       0.45580000
H        1.02300000       1.87310000       0.08930000
H       -0.48100000       1.86530000      -0.85260000
H       -0.54470000       1.83160000       0.92040000
H       -0.99160000      -0.45450000      -0.04160000
H        0.57390000      -0.41430000      -0.86870000
H        2.31090000      -0.98360000       3.36480000
H        1.77740000      -2.19340000       4.32870000
H        1.64440000      -4.73410000       2.45550000
