16
Properties=species:S:1:pos:R:3 gdb_126640=T pbc="F F F"
C       -0.08880000       1.51520000      -0.00560000
C       -0.06690000      -0.01490000       0.00530000
C        0.75510000      -0.55960000       1.17660000
N        0.79380000      -2.01380000       1.21430000
N       -0.24980000      -2.76530000       1.61270000
N        0.04010000      -3.97890000       1.51950000
O        1.36090000      -4.08890000       1.02240000
C        1.84570000      -2.82320000       0.82190000
O        2.92900000      -2.52360000       0.40800000
H        0.92130000       1.92760000      -0.10160000
H       -0.68170000       1.88850000      -0.84470000
H       -0.52680000       1.91440000       0.91560000
H       -1.08710000      -0.40870000       0.07660000
H        0.35720000      -0.39510000      -0.93100000
H        1.80070000      -0.24720000       1.10340000
H        0.35780000      -0.20790000       2.13350000
