19
Properties=species:S:1:pos:R:3 gdb_102150=T pbc="F F F"
C       -0.29280000      -1.73730000      -0.46070000
N       -0.45620000      -0.65360000       0.50840000
C        0.63700000      -0.40660000       1.43650000
C        1.82200000       0.44610000       0.91100000
C        2.59840000      -0.20490000      -0.13910000
N        3.22370000      -0.72420000      -0.96130000
C        0.03200000       0.29140000       2.67850000
C       -0.93500000      -0.53420000       3.49740000
O        0.31780000       1.43420000       2.95120000
H       -0.11870000      -2.67500000       0.07730000
H       -1.22610000      -1.84780000      -1.02060000
H        0.52830000      -1.59890000      -1.17570000
H       -0.72980000       0.20740000       0.04810000
H        1.01540000      -1.38610000       1.75560000
H        1.44260000       1.40600000       0.54630000
H        2.49260000       0.68850000       1.74190000
H       -0.37900000      -1.31070000       4.03740000
H       -1.44840000       0.10150000       4.21940000
H       -1.64820000      -1.03810000       2.84180000
