19
Properties=species:S:1:pos:R:3 gdb_22226=T pbc="F F F"
C       -0.54000000       1.53250000      -0.18460000
C       -0.07970000       0.08150000      -0.01990000
C        0.45260000      -0.49940000      -1.33030000
C        0.93290000      -1.93090000      -1.27160000
N        0.84760000      -2.51460000      -0.13540000
O        1.29750000      -3.84190000      -0.09990000
C        1.45210000      -2.45760000      -2.60550000
N        1.90810000      -3.73270000      -2.65970000
O        1.44000000      -1.71760000      -3.57490000
H        0.28210000       2.17660000      -0.51620000
H       -1.34180000       1.61490000      -0.92690000
H       -0.91840000       1.93620000       0.75960000
H        0.69690000       0.02000000       0.75050000
H       -0.90860000      -0.53530000       0.34450000
H       -0.30960000      -0.44030000      -2.11760000
H        1.28030000       0.10970000      -1.71550000
H        1.14860000      -4.08290000       0.81990000
H        1.90980000      -4.32710000      -1.84890000
H        2.24620000      -4.05880000      -3.55030000
