16
Properties=species:S:1:pos:R:3 gdb_20212=T pbc="F F F"
C       -0.03330000       1.55690000      -0.09340000
O        1.31240000       2.00900000       0.08210000
C        2.05810000       0.99380000       0.74540000
C        1.81430000       1.03420000       2.26030000
O        0.54350000       0.39830000       2.45120000
C        0.36460000      -0.51860000       1.39820000
C       -0.00540000       0.04040000       0.03900000
C        1.42240000      -0.35100000       0.35210000
H       -0.68740000       2.01430000       0.66050000
H       -0.37110000       1.86870000      -1.08740000
H        3.10920000       1.10890000       0.47260000
H        2.60080000       0.48310000       2.79860000
H        1.75280000       2.05420000       2.64650000
H       -0.01660000      -1.48330000       1.71520000
H       -0.61820000      -0.56100000      -0.62260000
H        1.97530000      -1.14570000      -0.12990000
