27
Properties=species:S:1:pos:R:3 gdb_113071=T pbc="F F F"
C       -0.04220000       1.37550000      -0.66220000
C       -0.09240000      -0.14690000      -0.49410000
C       -1.37740000      -0.62200000       0.18720000
C       -2.65750000      -0.58230000      -0.70170000
C       -2.66880000      -2.13950000      -0.77410000
C       -2.29430000      -2.73440000      -2.13310000
C       -3.41210000      -2.58460000      -3.17070000
C       -1.57880000      -2.16780000       0.35230000
C       -0.38810000      -3.11370000       0.24590000
H        0.88100000       1.69200000      -1.15790000
H       -0.88270000       1.73980000      -1.26280000
H       -0.08950000       1.87970000       0.30960000
H        0.01330000      -0.62330000      -1.47710000
H        0.77370000      -0.47350000       0.09590000
H       -1.48040000      -0.07620000       1.13230000
H       -3.52960000      -0.16120000      -0.19500000
H       -2.54740000      -0.06760000      -1.66230000
H       -3.61800000      -2.58820000      -0.45890000
H       -1.38050000      -2.26120000      -2.51450000
H       -2.05600000      -3.79890000      -2.01040000
H       -4.32380000      -3.09630000      -2.84220000
H       -3.66690000      -1.53210000      -3.33520000
H       -3.12000000      -3.00980000      -4.13610000
H       -2.07460000      -2.35360000       1.31170000
H        0.16440000      -2.99110000      -0.68990000
H        0.31640000      -2.94790000       1.06880000
H       -0.71380000      -4.15850000       0.30200000
