17
Properties=species:S:1:pos:R:3 gdb_19990=T pbc="F F F"
N       -0.10460000      -1.15530000       0.03570000
C       -0.06080000       0.00130000       0.03180000
C       -0.00080000       1.43510000       0.02640000
C        0.50030000       2.16780000       1.26490000
C        1.35510000       2.14340000       0.03400000
C        2.62970000       1.36660000      -0.01310000
C        3.46280000       1.35370000      -1.27090000
C        3.95230000       2.09410000      -0.05180000
H       -0.79880000       1.90600000      -0.53740000
H       -0.01750000       3.08040000       1.53630000
H        0.80660000       1.55270000       2.10350000
H        1.36610000       3.05700000      -0.55510000
H        2.60830000       0.43970000       0.55250000
H        3.95290000       0.42780000      -1.54870000
H        3.11480000       1.94130000      -2.11420000
H        3.93390000       3.17880000      -0.07540000
H        4.78080000       1.67800000       0.51020000
