22
Properties=species:S:1:pos:R:3 gdb_76416=T pbc="F F F"
C        1.39470000      -4.00070000       1.44770000
C        0.97980000      -2.67280000       0.85060000
N        0.59390000      -1.50470000       1.64950000
C        0.60900000      -1.54360000       3.10340000
C        1.83660000      -1.43860000       0.87760000
C        3.20100000      -1.41990000       1.54400000
C        1.78160000      -0.50720000      -0.30500000
C        0.59220000       0.27910000      -0.64130000
O        1.71900000       0.89270000      -0.00550000
H        2.08420000      -3.90650000       2.28790000
H        0.51590000      -4.55420000       1.79700000
H        1.88520000      -4.61320000       0.68370000
H        0.34070000      -2.79390000      -0.02580000
H        1.38920000      -2.16680000       3.56130000
H        0.73090000      -0.52280000       3.47820000
H       -0.36070000      -1.91400000       3.45170000
H        3.97600000      -1.69060000       0.81840000
H        3.42370000      -0.40900000       1.90070000
H        3.28600000      -2.10540000       2.38730000
H        2.48340000      -0.75210000      -1.10600000
H        0.42180000       0.57910000      -1.67480000
H       -0.28830000       0.17270000      -0.01380000
