14
Properties=species:S:1:pos:R:3 gdb_16980=T pbc="F F F"
C        0.00540000       1.56130000      -0.10290000
O        1.47970000       1.54840000       0.10590000
C        1.25140000       0.33370000       0.92470000
C        1.30680000      -1.26830000       0.90070000
O       -0.18350000      -1.12780000       1.06160000
C        0.06650000       0.02590000       0.10430000
C        0.60810000      -0.72300000      -1.11650000
C        1.44510000      -1.60560000      -0.57200000
H       -0.49760000       2.13370000       0.68210000
H       -0.25110000       1.92850000      -1.10020000
H        1.05530000       0.65780000       1.95040000
H        1.76100000      -1.87760000       1.68140000
H        0.33860000      -0.53160000      -2.14480000
H        2.07360000      -2.36620000      -1.00970000
