14
Properties=species:S:1:pos:R:3 gdb_131088=T pbc="F F F"
O        0.05010000       0.08290000       0.46890000
C        0.18900000       1.19040000       0.05090000
O        0.82160000       2.15780000       0.74790000
C        0.91870000       3.45920000       0.15880000
C        2.34970000       3.89600000       0.13030000
N        2.65960000       5.11100000       0.51660000
O        4.03070000       5.22220000       0.34180000
C        4.50350000       4.06110000      -0.13500000
C        3.49680000       3.16780000      -0.29800000
H       -0.17470000       1.54160000      -0.93530000
H        0.50290000       3.43790000      -0.85770000
H        0.33270000       4.16230000       0.75570000
H        5.56860000       4.02170000      -0.30290000
H        3.55460000       2.15150000      -0.64850000
