13
Properties=species:S:1:pos:R:3 gdb_42549=T pbc="F F F"
O        0.04190000       0.06690000       0.00390000
C        0.00670000       1.25800000      -0.05260000
C       -1.07480000       2.29990000      -0.01650000
N       -0.14040000       3.24500000       0.71920000
C        1.02930000       2.39090000       0.09650000
C        0.91820000       3.19640000      -1.21250000
C       -0.49140000       3.50890000      -0.71210000
C       -1.32730000       4.59980000      -1.11770000
N       -1.98840000       5.47610000      -1.48000000
H       -2.12880000       2.22700000       0.21780000
H        1.96170000       2.26450000       0.63810000
H        1.53110000       4.09940000      -1.18720000
H        1.04780000       2.67150000      -2.16160000
