19
Properties=species:S:1:pos:R:3 gdb_70586=T pbc="F F F"
O       -0.05300000       1.37050000       0.14110000
C       -0.00120000      -0.02410000      -0.00630000
C       -0.45450000      -0.64120000      -1.30190000
C       -1.32560000      -0.73100000      -0.05960000
C       -1.48280000      -2.04550000       0.70110000
C       -0.69770000      -2.06550000       2.02670000
C        0.74910000      -1.66570000       1.83190000
O        1.35840000      -2.05210000       0.58660000
C        1.09170000      -0.66580000       0.80980000
H        0.64040000       1.75220000      -0.40920000
H       -0.76850000       0.04210000      -2.08350000
H        0.04540000      -1.54390000      -1.63580000
H       -2.17910000      -0.06140000      -0.04590000
H       -2.54160000      -2.22600000       0.90850000
H       -1.13810000      -2.87890000       0.08250000
H       -1.14340000      -1.37180000       2.75230000
H       -0.75070000      -3.06480000       2.47450000
H        1.40360000      -1.77350000       2.69690000
H        1.97930000      -0.04570000       0.94450000
