19
Properties=species:S:1:pos:R:3 gdb_59913=T pbc="F F F"
C       -0.32360000       1.48480000      -0.13820000
C        0.00750000       0.00670000      -0.00200000
C        0.82080000      -0.32580000       1.24350000
O       -1.27500000      -0.68700000       0.05680000
C       -1.30280000      -1.95830000      -0.36590000
O       -0.35400000      -2.56900000      -0.79650000
C       -2.69550000      -2.54780000      -0.24830000
C       -3.07020000      -3.34890000      -1.48850000
O       -4.18310000      -3.38730000      -1.94060000
H        0.59860000       2.06750000      -0.21960000
H       -0.92770000       1.66820000      -1.03060000
H       -0.87970000       1.84070000       0.73460000
H        0.53020000      -0.35800000      -0.89020000
H        0.28270000      -0.02410000       2.14770000
H        1.02990000      -1.39670000       1.29280000
H        1.77600000       0.20760000       1.21790000
H       -2.66840000      -3.26020000       0.58870000
H       -3.45460000      -1.79560000      -0.03370000
H       -2.22560000      -3.90970000      -1.93790000
