18
Properties=species:S:1:pos:R:3 gdb_41622=T pbc="F F F"
C       -0.03960000       1.54170000      -0.17100000
C        1.46060000       1.63050000       0.22620000
C        1.41970000       0.15610000       0.72500000
C        0.02250000      -0.00170000      -0.05160000
N        0.34130000      -0.62020000      -1.36400000
C        1.51190000      -1.06490000      -1.21080000
O        2.56920000      -1.32700000      -2.03970000
C        3.46830000      -0.87050000      -0.94650000
C        2.27770000      -0.92080000       0.06210000
H       -0.69710000       1.97890000       0.58580000
H       -0.32020000       1.92630000      -1.15340000
H        2.11350000       1.77050000      -0.63920000
H        1.72900000       2.37740000       0.97590000
H        1.36320000       0.07440000       1.81110000
H       -0.81890000      -0.49940000       0.43850000
H        4.27590000      -1.58580000      -0.78610000
H        3.85770000       0.12130000      -1.18660000
H        2.32950000      -1.83590000       0.65810000
