13
Properties=species:S:1:pos:R:3 gdb_694=T pbc="F F F"
O       -0.09420000       1.47110000      -0.03830000
C       -0.02540000       0.06380000       0.02420000
C        0.20520000      -0.64040000       1.39500000
N       -1.09210000      -1.39770000       1.27880000
C       -2.13420000      -0.35890000       1.23690000
C       -1.37930000      -0.62110000      -0.00370000
H        0.80340000       1.81810000      -0.06000000
H        0.64650000      -0.33570000      -0.74590000
H        1.05070000      -1.33130000       1.40880000
H        0.25310000       0.02110000       2.26630000
H       -3.13920000      -0.76480000       1.29500000
H       -1.98130000       0.57260000       1.77630000
H       -1.82790000      -1.09300000      -0.87130000
