19
Properties=species:S:1:pos:R:3 gdb_85368=T pbc="F F F"
C        0.04780000       1.63340000       0.03460000
C       -0.04760000       0.10100000       0.00640000
C        0.52720000      -0.46100000      -1.31010000
C        0.02570000      -1.84800000      -1.69240000
O       -0.35810000      -2.06860000      -2.82750000
C        0.04000000      -2.94750000      -0.70660000
C        0.41270000      -2.92380000       0.59010000
C        0.82400000      -1.81270000       1.43340000
C        0.62040000      -0.50450000       1.21450000
H        1.09060000       1.96210000      -0.03950000
H       -0.50340000       2.07550000      -0.80010000
H       -0.36610000       2.03550000       0.96500000
H       -1.11570000      -0.17040000       0.04560000
H        0.27760000       0.19360000      -2.14940000
H        1.62340000      -0.49860000      -1.23950000
H       -0.26480000      -3.89450000      -1.14300000
H        0.40480000      -3.88470000       1.10230000
H        1.29390000      -2.10090000       2.37040000
H        0.94640000       0.19330000       1.98310000
