20
Properties=species:S:1:pos:R:3 gdb_69952=T pbc="F F F"
C       -0.03960000       1.54220000      -0.00420000
C       -0.01250000       0.03640000       0.07390000
C       -1.23800000      -0.75080000      -0.38990000
C       -1.16720000      -2.10290000       0.32460000
O       -0.36530000      -3.11690000      -0.34590000
C        0.43510000      -3.31320000       0.84700000
C       -0.12120000      -2.01490000       1.46470000
C        0.65970000      -0.74400000       1.16340000
N        1.28680000      -0.60840000      -0.16590000
H        0.89460000       1.96010000       0.37860000
H       -0.15430000       1.87750000      -1.04150000
H       -0.87340000       1.95430000       0.57540000
H       -2.15590000      -0.22550000      -0.09880000
H       -1.27000000      -0.88080000      -1.47810000
H       -2.15320000      -2.50760000       0.58050000
H        0.14110000      -4.22670000       1.37950000
H        1.50690000      -3.35120000       0.62400000
H       -0.46250000      -2.05750000       2.50030000
H        1.20510000      -0.26310000       1.97090000
H        1.16060000      -1.45960000      -0.71090000
