18
Properties=species:S:1:pos:R:3 gdb_71839=T pbc="F F F"
C       -0.09810000       1.48870000      -0.03790000
C       -0.09210000      -0.00590000      -0.06940000
N        0.81010000      -0.76200000      -0.95190000
C       -0.10440000      -1.99040000      -0.76360000
C        0.54410000      -2.79320000       0.33220000
C        0.45500000      -2.08700000       1.46790000
C       -0.36310000      -0.86990000       1.23630000
C       -1.15150000      -1.05180000      -0.03920000
O       -2.51500000      -0.96810000      -0.19980000
H        0.88160000       1.87070000       0.26830000
H       -0.32970000       1.90510000      -1.02540000
H       -0.84900000       1.86180000       0.66450000
H        0.63490000      -0.41800000      -1.89610000
H       -0.37260000      -2.49020000      -1.69310000
H        1.12140000      -3.69390000       0.17010000
H        0.93720000      -2.31790000       2.41020000
H       -0.80190000      -0.29660000       2.04550000
H       -2.93170000      -1.62700000       0.36890000
