21
Properties=species:S:1:pos:R:3 gdb_1141=T pbc="F F F"
C       -0.88200000       1.06600000      -0.46070000
C        0.13490000      -0.03470000      -0.19900000
C        1.42880000      -0.07420000      -1.05950000
C        2.25750000      -0.40780000       0.22330000
C        2.51320000      -1.91010000       0.36790000
C        3.54860000       0.38170000       0.41470000
C        1.02950000       0.06280000       1.06840000
H       -0.40670000       2.05370000      -0.43500000
H       -1.35300000       0.94970000      -1.44360000
H       -1.67880000       1.06140000       0.29200000
H       -0.36700000      -1.00780000      -0.23060000
H        1.47020000      -0.79450000      -1.88230000
H        1.67760000       0.91660000      -1.45540000
H        3.23940000      -2.25770000      -0.37630000
H        2.91330000      -2.14590000       1.36110000
H        1.59550000      -2.49250000       0.23320000
H        3.37530000       1.45840000       0.31300000
H        3.97800000       0.20480000       1.40830000
H        4.30340000       0.09330000      -0.32700000
H        1.14160000       1.10050000       1.40140000
H        0.75430000      -0.54890000       1.93300000
