18
Properties=species:S:1:pos:R:3 gdb_33419=T pbc="F F F"
C        0.09110000      -1.21040000      -0.01280000
C        0.06740000      -0.01040000      -0.00850000
C        0.08710000       1.45230000       0.00710000
C        1.52070000       2.01630000      -0.23430000
C        1.58800000       3.52040000      -0.10950000
C        1.70560000       4.16320000       1.25220000
C        2.87680000       4.18360000       0.30130000
C       -0.86180000       2.00010000      -0.97710000
N       -1.58860000       2.45560000      -1.75080000
H        0.09750000      -2.27260000      -0.01870000
H       -0.24500000       1.80310000       0.99390000
H        2.17660000       1.54280000       0.50350000
H        1.85840000       1.68780000      -1.22270000
H        0.98780000       4.05710000      -0.83870000
H        1.17010000       5.08800000       1.43400000
H        1.77390000       3.51270000       2.11880000
H        3.72510000       3.54670000       0.53010000
H        3.14230000       5.12240000      -0.17130000
