17
Properties=species:S:1:pos:R:3 gdb_132504=T pbc="F F F"
C        0.00340000       1.53160000       0.02160000
C        0.00490000       0.02290000      -0.00480000
C       -0.08060000      -0.68980000      -1.20050000
C       -0.08970000      -2.08290000      -1.22310000
C       -0.01140000      -2.82230000      -0.04110000
N       -0.07570000      -4.21560000      -0.00120000
C        0.08020000      -2.09110000       1.14920000
F        0.17560000      -2.79170000       2.29830000
C        0.08880000      -0.71240000       1.18450000
H        0.87150000       1.92740000       0.56090000
H        0.02430000       1.94320000      -0.99100000
H       -0.88980000       1.92640000       0.52050000
H       -0.14200000      -0.14850000      -2.13960000
H       -0.16130000      -2.61010000      -2.16980000
H        0.29100000      -4.67460000      -0.82220000
H        0.29800000      -4.61180000       0.84920000
H        0.16610000      -0.22040000       2.14850000
