17
Properties=species:S:1:pos:R:3 gdb_34832=T pbc="F F F"
C       -0.03650000      -1.29330000      -0.05950000
C       -0.00510000      -0.09170000      -0.00700000
C        0.00410000       1.35510000       0.02880000
C        0.06530000       2.10080000       1.40990000
C        1.54910000       1.65190000       1.52470000
C        1.37250000       2.12600000       0.05490000
C        0.59080000       3.35840000       0.63190000
C       -0.30180000       4.12240000      -0.21500000
C       -1.03000000       4.78620000      -0.90530000
H       -0.06320000      -2.35380000      -0.10470000
H       -0.72800000       1.76770000      -0.66990000
H       -0.70280000       2.09260000       2.18330000
H        2.19580000       2.26220000       2.16000000
H        1.72190000       0.58600000       1.67160000
H        2.11770000       2.14690000      -0.74040000
H        1.21050000       4.02190000       1.24210000
H       -1.67470000       5.36800000      -1.51650000
