19
Properties=species:S:1:pos:R:3 gdb_99649=T pbc="F F F"
C        0.38320000       1.52500000       0.23820000
N       -0.11970000       0.23490000      -0.22080000
C        0.68190000      -0.42090000      -1.23460000
C        2.10880000      -0.58040000      -0.83490000
N        3.20700000      -0.67890000      -0.48690000
C        0.12690000      -1.80380000      -1.60300000
O       -0.64010000      -2.47470000      -0.60880000
C       -1.28730000      -2.12830000      -1.85080000
C       -2.44750000      -1.16860000      -1.82530000
H        1.40230000       1.48900000       0.65290000
H        0.38280000       2.23500000      -0.59640000
H       -0.29170000       1.91160000       1.00570000
H       -0.26710000      -0.41130000       0.54690000
H        0.68350000       0.20210000      -2.14050000
H        0.87470000      -2.42960000      -2.09240000
H       -1.44700000      -3.00350000      -2.48470000
H       -2.22900000      -0.29850000      -1.20730000
H       -2.67100000      -0.83820000      -2.84590000
H       -3.33910000      -1.67550000      -1.44130000
