20
Properties=species:S:1:pos:R:3 gdb_57661=T pbc="F F F"
C       -0.03700000       1.52590000      -0.09440000
C        0.05430000       0.00520000       0.08270000
C        0.82390000      -0.39140000       1.34740000
O       -1.28510000      -0.57460000       0.09180000
C       -2.16410000      -0.26900000       1.06110000
O       -3.26840000      -0.72720000       1.08420000
C        0.72880000      -0.61120000      -1.14030000
C        0.46030000      -2.00120000      -1.57390000
N       -0.01160000      -0.85590000      -2.38020000
H        0.96620000       1.94520000      -0.21440000
H       -0.61800000       1.77110000      -0.98730000
H       -0.49870000       2.01220000       0.76970000
H        0.43380000       0.10260000       2.24180000
H        0.78020000      -1.47350000       1.49420000
H        1.87400000      -0.10190000       1.24400000
H       -1.77350000       0.43100000       1.81830000
H        1.72580000      -0.20360000      -1.29960000
H        1.25360000      -2.58800000      -2.02760000
H       -0.28020000      -2.56970000      -1.02050000
H       -1.00530000      -0.73120000      -2.19520000
