15
Properties=species:S:1:pos:R:3 gdb_21044=T pbc="F F F"
C        0.00870000       1.40630000      -0.05230000
N        0.00470000      -0.03280000       0.00820000
N        0.04870000      -0.79260000      -1.14740000
C       -0.01440000      -2.02030000      -0.66040000
N       -0.08010000      -3.14320000      -1.46450000
N       -0.06190000      -2.12080000       0.70180000
C       -0.04430000      -0.85090000       1.07570000
N       -0.14320000      -0.39810000       2.38250000
H        1.02040000       1.80970000      -0.18130000
H       -0.60330000       1.72510000      -0.89830000
H       -0.42450000       1.80300000       0.86930000
H        0.29430000      -2.99380000      -2.39030000
H        0.29970000      -3.96560000      -1.01870000
H       -0.09530000      -1.17570000       3.02740000
H        0.52820000       0.31610000       2.63210000
