20
Properties=species:S:1:pos:R:3 gdb_76914=T pbc="F F F"
C       -0.14160000       1.53940000       0.02740000
C       -0.01130000       0.03700000      -0.00790000
O       -1.15320000      -0.65380000      -0.45630000
C        1.32180000      -0.62700000      -0.29820000
O        2.48070000       0.13270000      -0.43290000
C        0.70040000      -0.73490000       1.08470000
N        1.40530000      -0.00490000       2.10260000
C        0.72830000       0.20530000       3.38170000
C        1.85570000      -0.76010000       3.27070000
H        0.77430000       2.00950000       0.38770000
H       -0.34020000       1.92390000      -0.98030000
H       -0.97190000       1.83930000       0.67450000
H       -1.23620000      -0.49370000      -1.40370000
H        1.30840000      -1.50690000      -0.93610000
H        2.68330000       0.45590000       0.45850000
H        0.23220000      -1.67790000       1.37080000
H        0.87980000       1.17780000       3.84060000
H       -0.27340000      -0.20350000       3.49050000
H        1.61560000      -1.82060000       3.30640000
H        2.84020000      -0.50190000       3.64940000
