21
Properties=species:S:1:pos:R:3 gdb_116485=T pbc="F F F"
C        0.15110000       1.35710000       0.25740000
O        0.05310000      -0.04120000       0.05810000
C        0.60190000      -0.48430000      -1.13900000
O        2.00140000      -0.24420000      -1.10940000
C        2.63150000      -0.21660000      -2.37630000
C        2.85900000      -1.60220000      -2.98580000
C        1.57760000      -2.34670000      -3.40020000
C        0.65730000      -2.73760000      -2.26490000
C        0.24060000      -1.94380000      -1.28140000
H        1.19440000       1.68290000       0.32170000
H       -0.34330000       1.90940000      -0.55680000
H       -0.35930000       1.57820000       1.19710000
H        0.18480000       0.09910000      -1.98920000
H        2.04980000       0.41000000      -3.07540000
H        3.59510000       0.27820000      -2.21690000
H        3.49580000      -1.47630000      -3.87110000
H        3.42050000      -2.20990000      -2.26750000
H        1.02350000      -1.72530000      -4.12080000
H        1.86190000      -3.24930000      -3.95080000
H        0.30400000      -3.76610000      -2.27010000
H       -0.42980000      -2.31690000      -0.51340000
