20
Properties=species:S:1:pos:R:3 gdb_71642=T pbc="F F F"
C        0.01330000       1.54080000       0.05090000
C        0.00900000       0.02450000      -0.00710000
C        0.32400000      -0.65610000      -1.38020000
C       -0.79520000      -1.67110000      -1.07940000
C       -0.52050000      -2.65080000       0.07670000
C        0.10530000      -2.00050000       1.25800000
C        0.81240000      -0.67340000       1.10300000
N       -1.35680000      -1.85540000       1.06970000
C       -1.37200000      -0.75430000       0.02100000
H        1.02630000       1.93910000      -0.08130000
H       -0.61460000       1.97070000      -0.73700000
H       -0.36340000       1.90130000       1.01500000
H        0.05400000      -0.00950000      -2.22140000
H        1.34170000      -1.03040000      -1.53130000
H       -1.40310000      -2.08290000      -1.88440000
H       -0.61320000      -3.73060000       0.00770000
H        0.37810000      -2.64980000       2.08540000
H        1.87240000      -0.77390000       0.84660000
H        0.74730000      -0.11780000       2.04700000
H       -2.30590000      -0.19940000      -0.04870000
