21
Properties=species:S:1:pos:R:3 gdb_65315=T pbc="F F F"
C        0.03770000       1.59180000      -0.13160000
C        0.01310000       0.07820000      -0.06370000
C        1.10640000      -0.66650000      -0.78250000
C        1.11560000      -0.62780000       0.74070000
C        2.12360000       0.10070000       1.45070000
C        2.96830000       0.70540000       2.05900000
C       -1.33220000      -0.59830000      -0.00600000
C       -2.47360000      -0.08580000       0.83860000
C       -2.56670000      -0.03340000      -0.66700000
H        1.06280000       1.96320000      -0.07150000
H       -0.39700000       1.94910000      -1.07070000
H       -0.51840000       2.04440000       0.69600000
H        0.87080000      -1.61540000      -1.25290000
H        1.86940000      -0.08760000      -1.29090000
H        0.80010000      -1.54420000       1.23240000
H        3.71400000       1.23690000       2.59590000
H       -1.25310000      -1.68220000      -0.04710000
H       -3.07740000      -0.81210000       1.37130000
H       -2.34410000       0.85140000       1.36800000
H       -2.49930000       0.94000000      -1.13920000
H       -3.23570000      -0.72200000      -1.17130000
