18
Properties=species:S:1:pos:R:3 gdb_127063=T pbc="F F F"
C       -0.11480000       1.49470000       0.12620000
C        0.03120000      -0.01370000       0.02680000
O        0.63580000      -0.48610000       1.21510000
C        0.82390000      -1.88290000       1.22310000
C        1.53200000      -2.25060000       2.48750000
N        1.48350000      -3.48140000       3.00040000
N        2.24940000      -3.38760000       4.08090000
N        2.78820000      -2.20300000       4.32830000
C        2.34400000      -1.45590000       3.31660000
H        0.86350000       1.96770000       0.24960000
H       -0.58120000       1.89230000      -0.78000000
H       -0.73680000       1.76420000       0.98440000
H       -0.95350000      -0.49120000      -0.11170000
H        0.64720000      -0.28880000      -0.84620000
H       -0.13550000      -2.42070000       1.16080000
H        1.41920000      -2.19400000       0.34640000
H        2.39990000      -4.17530000       4.68990000
H        2.60230000      -0.41450000       3.22760000
