21
Properties=species:S:1:pos:R:3 gdb_115928=T pbc="F F F"
C        0.12980000       1.32750000      -0.11490000
O       -0.00130000      -0.05640000       0.10930000
C       -1.33250000      -0.54570000       0.05720000
C       -1.85660000      -0.71070000      -1.37520000
C       -3.32610000      -1.15680000      -1.35990000
C       -3.53490000      -2.38110000      -0.49610000
O       -2.60140000      -3.44740000      -0.68230000
C       -2.56550000      -2.72570000       0.55890000
C       -1.32950000      -1.88090000       0.81080000
H        1.18380000       1.57770000       0.03060000
H       -0.15790000       1.62480000      -1.13390000
H       -0.47380000       1.91360000       0.59640000
H       -1.99580000       0.16200000       0.58690000
H       -1.76710000       0.23090000      -1.92550000
H       -1.24510000      -1.45560000      -1.89380000
H       -3.96420000      -0.35090000      -0.97170000
H       -3.67430000      -1.36530000      -2.37850000
H       -4.56900000      -2.70920000      -0.37860000
H       -2.91680000      -3.31410000       1.40670000
H       -0.44500000      -2.44790000       0.49850000
H       -1.22170000      -1.69200000       1.88360000
