25
Properties=species:S:1:pos:R:3 gdb_73858=T pbc="F F F"
C       -0.03880000       1.52300000       0.11860000
C        0.02670000       0.03160000       0.00180000
C        0.01300000      -0.72180000      -1.10670000
C       -0.07170000      -0.28070000      -2.53510000
C        0.04690000      -2.19650000      -0.76810000
C        0.43830000      -2.25090000       0.73770000
C       -0.30290000      -3.35620000       1.49810000
C        1.95740000      -2.46070000       0.86150000
C        0.07190000      -0.82640000       1.24770000
H        0.83460000       1.91480000       0.65610000
H       -0.08530000       2.02160000      -0.85260000
H       -0.91960000       1.83380000       0.69630000
H       -0.10750000       0.80640000      -2.64060000
H        0.78790000      -0.64630000      -3.11200000
H       -0.96570000      -0.69320000      -3.02170000
H       -0.93920000      -2.65250000      -0.94480000
H        0.75320000      -2.75660000      -1.39600000
H       -0.05520000      -4.34680000       1.09940000
H       -0.03710000      -3.35300000       2.56160000
H       -1.38840000      -3.22880000       1.42500000
H        2.50390000      -1.67890000       0.32330000
H        2.27510000      -2.43360000       1.90980000
H        2.25690000      -3.42910000       0.44520000
H        0.79510000      -0.45690000       1.98740000
H       -0.90570000      -0.81860000       1.75340000
