21
Properties=species:S:1:pos:R:3 gdb_115646=T pbc="F F F"
C        0.32320000       1.63020000       0.10820000
C        0.04540000       0.12460000       0.05120000
C        0.51390000      -0.49020000      -1.25640000
O        1.94860000      -0.37380000      -1.43660000
C        2.09060000      -1.79700000      -1.60240000
C        0.58790000      -2.02950000      -1.38850000
C        0.03430000      -3.01760000      -0.34490000
O       -0.75240000      -3.70290000      -1.33980000
C       -0.28160000      -2.82200000      -2.37870000
H        1.39040000       1.82520000      -0.02860000
H       -0.22020000       2.16250000      -0.68020000
H        0.01710000       2.05180000       1.06990000
H        0.55130000      -0.37930000       0.88410000
H       -1.02940000      -0.06900000       0.16500000
H       -0.01480000      -0.02050000      -2.10100000
H        2.46520000      -2.06290000      -2.60040000
H        2.75340000      -2.23770000      -0.84590000
H        0.78360000      -3.67620000       0.11490000
H       -0.59030000      -2.58500000       0.44610000
H       -1.10030000      -2.25600000      -2.84370000
H        0.26810000      -3.36120000      -3.16200000
