22
Properties=species:S:1:pos:R:3 gdb_13216=T pbc="F F F"
C       -0.12580000       1.50290000      -0.05280000
O       -0.07320000       0.11930000       0.19440000
C       -1.30690000      -0.57220000       0.02570000
C       -1.64320000      -0.77830000      -1.45530000
C       -1.19240000      -1.89580000       0.77400000
C        0.02000000      -2.82950000       0.48220000
C        0.09320000      -3.14210000       2.00130000
C       -0.76680000      -1.87770000       2.26840000
H        0.85130000       1.91520000       0.21270000
H       -0.32550000       1.74070000      -1.10810000
H       -0.89580000       1.99680000       0.56110000
H       -2.11050000       0.02350000       0.49550000
H       -2.59800000      -1.30360000      -1.55990000
H       -1.72960000       0.17310000      -1.98800000
H       -0.86550000      -1.37390000      -1.94330000
H       -2.13440000      -2.44150000       0.65000000
H       -0.13370000      -3.66650000      -0.20350000
H        0.88200000      -2.24740000       0.14780000
H       -0.44470000      -4.06100000       2.25310000
H        1.08380000      -3.18550000       2.46040000
H       -0.14510000      -1.00370000       2.47600000
H       -1.55560000      -1.94480000       3.02230000
