22
Properties=species:S:1:pos:R:3 gdb_113223=T pbc="F F F"
C       -0.13370000       1.45890000      -0.39790000
C       -0.03990000       0.11810000       0.34220000
C       -1.36260000      -0.60950000       0.34860000
O       -1.79090000      -1.21330000      -0.88780000
C       -1.55860000      -2.06920000       0.24460000
C       -0.40800000      -3.04470000       0.11550000
C       -2.81380000      -2.68330000       0.81040000
C       -4.14510000      -2.09990000       0.53440000
N       -3.74730000      -3.37110000      -0.10320000
H        0.82740000       1.98090000      -0.38890000
H       -0.42810000       1.30200000      -1.43980000
H       -0.87690000       2.11680000       0.06540000
H        0.73260000      -0.50340000      -0.11850000
H        0.26350000       0.28590000       1.38390000
H       -2.16450000      -0.05980000       0.84800000
H        0.45040000      -2.59790000      -0.38700000
H       -0.09250000      -3.39710000       1.10350000
H       -0.72430000      -3.91940000      -0.46230000
H       -2.66190000      -3.21490000       1.74820000
H       -4.93600000      -2.18450000       1.27410000
H       -4.18230000      -1.21360000      -0.09130000
H       -3.46440000      -3.16140000      -1.05980000
