17
Properties=species:S:1:pos:R:3 gdb_79126=T pbc="F F F"
O       -0.04010000       1.44920000      -0.07850000
C        0.02330000       0.04870000       0.00320000
C        0.00560000      -0.63110000       1.39850000
C       -1.48970000      -0.18750000       1.57090000
C       -2.23790000      -1.26160000       2.35000000
C       -1.58780000      -2.50040000       1.71060000
O       -1.78990000      -3.66290000       1.94580000
C       -0.62540000      -1.89800000       0.71510000
C       -1.34230000      -0.65130000       0.07790000
H        0.85570000       1.79780000      -0.04210000
H        0.73700000      -0.36800000      -0.71950000
H        0.78430000      -0.64220000       2.16400000
H       -1.69750000       0.86100000       1.76510000
H       -2.05940000      -1.23680000       3.43020000
H       -3.32120000      -1.25720000       2.18950000
H       -0.02160000      -2.56980000       0.10710000
H       -2.12190000      -0.68140000      -0.68480000
