16
Properties=species:S:1:pos:R:3 gdb_22985=T pbc="F F F"
C       -0.21320000       1.47770000      -0.03810000
C       -0.01140000      -0.00270000       0.12120000
N        0.13580000      -0.63760000       1.22010000
O        0.10850000       0.20220000       2.33750000
C        0.01680000      -0.82770000      -1.13590000
C       -0.08480000      -2.35900000      -1.06330000
O       -1.34080000      -2.31870000      -1.82710000
C       -1.32440000      -0.95560000      -1.88930000
O       -2.12900000      -0.22760000      -2.37520000
H        0.72260000       1.95720000      -0.35090000
H       -0.95710000       1.66850000      -0.81730000
H       -0.53210000       1.93060000       0.89970000
H        0.19350000      -0.42390000       3.06430000
H        0.79980000      -0.46250000      -1.80980000
H        0.67500000      -2.92310000      -1.60570000
H       -0.25020000      -2.76420000      -0.06690000
