21
Properties=species:S:1:pos:R:3 gdb_105634=T pbc="F F F"
C        0.38530000       1.57950000       0.12180000
C        0.14290000       0.07540000      -0.03180000
C        0.68990000      -0.47930000      -1.35420000
O        2.14070000      -0.31870000      -1.41020000
C        2.35850000      -1.74030000      -1.31060000
C        0.85520000      -2.03930000      -1.46280000
C        0.17360000      -2.96510000      -0.46850000
C        0.03250000       0.13280000      -2.50500000
C       -0.52960000       0.60840000      -3.45580000
H        1.45210000       1.80130000       0.03120000
H       -0.14660000       2.14680000      -0.64710000
H        0.04310000       1.92730000       1.10090000
H        0.63460000      -0.45850000       0.78830000
H       -0.92810000      -0.15170000       0.02980000
H        3.01870000      -2.11020000      -2.10260000
H        2.78160000      -2.02010000      -0.33550000
H        0.62030000      -2.35580000      -2.48130000
H        0.40460000      -2.70420000       0.56810000
H       -0.91460000      -2.94790000      -0.58920000
H        0.50450000      -3.99690000      -0.62990000
H       -1.01600000       1.03640000      -4.29750000
