19
Properties=species:S:1:pos:R:3 gdb_44797=T pbc="F F F"
O        0.64570000       0.21390000       0.87230000
C        0.35620000       1.33850000       0.56260000
C       -0.99660000       2.02190000       0.23440000
C       -0.17630000       3.19380000      -0.32110000
C        0.65230000       3.76400000       0.77340000
C        1.16990000       2.50430000       0.07970000
C        2.50130000       2.44280000      -0.57760000
C        3.56000000       1.48690000      -0.06880000
C        2.91240000       1.24770000      -1.40740000
H       -1.53070000       1.43890000      -0.52150000
H       -1.67560000       2.24210000       1.06400000
H       -0.37610000       3.71310000      -1.24890000
H        1.23690000       4.64720000       0.53390000
H        0.30250000       3.73180000       1.80240000
H        2.86370000       3.40700000      -0.92430000
H        4.58630000       1.83570000      -0.03890000
H        3.27640000       0.82120000       0.73740000
H        2.21930000       0.41750000      -1.47860000
H        3.48930000       1.43320000      -2.30670000
