21
Properties=species:S:1:pos:R:3 gdb_95522=T pbc="F F F"
O        0.08290000       1.38740000      -0.12730000
C        0.02480000      -0.03440000       0.00170000
C        0.75040000      -0.50420000       1.27080000
C        0.05200000       0.02280000       2.53370000
C       -1.44380000      -0.14560000       2.45790000
C       -2.09000000      -0.41540000       1.32030000
C       -1.41290000      -0.53840000       0.00430000
C       -2.22690000      -0.32470000      -1.25490000
C       -1.78300000      -1.71120000      -0.89110000
H       -0.58680000       1.75760000       0.45770000
H        0.54540000      -0.41580000      -0.88350000
H        0.75450000      -1.60110000       1.28280000
H        1.79110000      -0.16830000       1.24010000
H        0.44050000      -0.49090000       3.42110000
H        0.30140000       1.08380000       2.68270000
H       -2.00690000      -0.03940000       3.38180000
H       -3.17050000      -0.54590000       1.32720000
H       -3.27720000      -0.07570000      -1.14330000
H       -1.73280000       0.18050000      -2.07740000
H       -0.98900000      -2.16950000      -1.47190000
H       -2.52440000      -2.41140000      -0.52130000
