23
Properties=species:S:1:pos:R:3 gdb_111140=T pbc="F F F"
C        0.14690000       1.43650000       0.18590000
C        0.10720000      -0.09140000       0.31830000
C       -1.30260000      -0.64600000       0.13720000
C       -1.98330000      -0.74500000      -1.27060000
C       -1.05570000      -1.96300000      -1.56520000
C       -1.56590000      -2.16960000      -0.10240000
C       -2.98220000      -1.78250000      -0.62900000
C       -4.09830000      -1.33030000       0.30790000
O       -3.51610000      -2.77240000      -1.49550000
H        1.15220000       1.82580000       0.37460000
H       -0.15110000       1.75420000      -0.81910000
H       -0.53440000       1.91530000       0.89840000
H        0.81950000      -0.53200000      -0.38470000
H        0.45810000      -0.37550000       1.31950000
H       -1.93200000      -0.19590000       0.90900000
H       -2.23480000       0.07760000      -1.94510000
H       -1.40950000      -2.67520000      -2.30560000
H        0.00530000      -1.75400000      -1.68940000
H       -1.33050000      -2.99550000       0.57270000
H       -3.79940000      -0.58460000       1.04450000
H       -4.91740000      -0.89300000      -0.27820000
H       -4.50130000      -2.19830000       0.83850000
H       -4.31990000      -2.41710000      -1.88810000
