18
Properties=species:S:1:pos:R:3 gdb_49015=T pbc="F F F"
O       -0.78470000       1.02310000       0.49520000
C        0.26610000       0.85530000      -0.07540000
C        1.41900000       1.80730000      -0.00710000
C        1.42940000       2.85680000       1.13490000
C        1.57270000       4.00940000       0.09030000
C        1.55330000       2.96280000      -1.05730000
C        2.87590000       2.30540000      -1.47480000
C        3.81640000       2.09300000      -0.36170000
N        2.69810000       1.14390000      -0.49900000
H        0.44440000      -0.02450000      -0.73070000
H        0.46540000       2.85330000       1.64680000
H        2.22380000       2.75230000       1.87710000
H        0.71700000       4.68690000       0.07280000
H        2.48510000       4.60780000       0.15230000
H        0.82550000       3.08540000      -1.85820000
H        3.16080000       2.12530000      -2.50690000
H        4.76840000       1.63120000      -0.60670000
H        3.86190000       2.77190000       0.48290000
