24
Properties=species:S:1:pos:R:3 gdb_7195=T pbc="F F F"
C        0.04560000       1.57390000       0.06410000
C        0.00560000       0.04480000       0.00490000
C        0.70550000      -0.52420000      -1.23270000
C        0.71910000      -2.05360000      -1.28310000
C        1.31940000      -2.58080000      -2.58980000
O        1.46040000      -2.49650000      -0.15040000
C        1.21480000      -3.82690000       0.25590000
C        1.98930000      -4.08510000       1.53860000
H        1.07760000       1.94180000       0.08800000
H       -0.44190000       2.02060000      -0.81010000
H       -0.46210000       1.95290000       0.95680000
H        0.47810000      -0.37820000       0.89720000
H       -1.03880000      -0.29560000       0.01730000
H        0.21960000      -0.14960000      -2.14290000
H        1.74530000      -0.17190000      -1.26470000
H       -0.31900000      -2.42040000      -1.19300000
H        1.33430000      -3.67410000      -2.61520000
H        0.73320000      -2.23760000      -3.44840000
H        2.34710000      -2.22170000      -2.70620000
H        0.13450000      -3.97910000       0.42030000
H        1.52490000      -4.54440000      -0.52050000
H        1.82240000      -5.10900000       1.88670000
H        3.06140000      -3.94520000       1.37290000
H        1.67240000      -3.39350000       2.32450000
