16
Properties=species:S:1:pos:R:3 gdb_47385=T pbc="F F F"
O        0.02060000      -0.05610000       0.08060000
C        0.00050000       1.14740000       0.03800000
N       -1.16960000       1.87140000       0.06210000
C       -1.32440000       3.31810000      -0.04830000
C       -0.00170000       3.96090000       0.40000000
C        1.14130000       3.24940000      -0.30240000
O        1.16050000       1.85250000       0.01710000
C       -1.71180000       3.73630000      -1.40320000
C       -2.03690000       4.07590000      -2.50930000
H       -1.99000000       1.29380000      -0.03220000
H       -2.11930000       3.62700000       0.64210000
H       -0.00070000       5.02580000       0.15720000
H        0.10170000       3.84800000       1.48360000
H        1.05870000       3.37120000      -1.38990000
H        2.11350000       3.63240000       0.01440000
H       -2.32640000       4.36980000      -3.48840000
