19
Properties=species:S:1:pos:R:3 gdb_110804=T pbc="F F F"
C        0.06050000       0.84340000      -1.50790000
C       -0.03310000       0.22260000      -0.10730000
C       -1.35870000      -0.48550000       0.07900000
C       -1.64360000      -1.90880000      -0.18700000
C       -0.48850000      -2.82520000       0.21350000
C       -0.64160000      -2.23240000       1.64350000
C        0.50320000      -1.62000000       2.30970000
N        1.41350000      -1.15700000       2.85190000
N       -1.78020000      -1.32650000       1.22810000
H        1.00790000       1.37440000      -1.63460000
H       -0.00300000       0.07670000      -2.28730000
H       -0.74990000       1.55990000      -1.68010000
H        0.81370000      -0.45010000       0.04750000
H        0.06000000       1.00510000       0.65460000
H       -2.20190000       0.16100000      -0.16450000
H       -2.51780000      -2.24050000      -0.73720000
H       -0.73450000      -3.88670000       0.18460000
H        0.46370000      -2.66790000      -0.29770000
H       -1.06130000      -2.97170000       2.33060000
