14
Properties=species:S:1:pos:R:3 gdb_80092=T pbc="F F F"
O       -0.11290000       1.39360000      -0.16180000
C       -0.07560000       0.01520000      -0.01610000
C       -0.47120000      -0.61880000       1.29450000
N       -0.83570000       0.24650000       2.35890000
C       -1.86610000       0.96290000       2.21760000
O       -2.77200000       0.96190000       1.19410000
C       -2.66340000       0.05840000       0.14540000
O       -3.59310000      -0.06380000      -0.59510000
C       -1.40150000      -0.71060000       0.07080000
H        0.51860000       1.78230000       0.45470000
H        0.69250000      -0.49810000      -0.59290000
H        0.06070000      -1.51140000       1.60450000
H       -2.16690000       1.68140000       2.97450000
H       -1.50090000      -1.63780000      -0.47930000
