20
Properties=species:S:1:pos:R:3 gdb_10344=T pbc="F F F"
C       -0.07140000       0.94370000       0.94500000
C       -0.04360000      -0.40890000       0.22980000
C        0.57650000      -0.32190000      -1.17570000
O        1.89580000       0.12840000      -1.02670000
C        2.51110000       0.58380000      -2.21580000
C        0.49420000      -1.68010000      -1.90000000
C       -0.89990000      -2.20320000      -2.21480000
O        1.48740000      -2.29840000      -2.19980000
H        0.93630000       1.35770000       1.01890000
H       -0.69490000       1.66350000       0.40270000
H       -0.47960000       0.84130000       1.95500000
H        0.54450000      -1.13000000       0.80980000
H       -1.05870000      -0.81190000       0.15000000
H       -0.01140000       0.39910000      -1.77710000
H        2.65110000      -0.22580000      -2.93990000
H        1.92510000       1.39100000      -2.68360000
H        3.48840000       0.98140000      -1.93220000
H       -1.60220000      -1.39760000      -2.44820000
H       -0.84120000      -2.90620000      -3.04740000
H       -1.29300000      -2.73940000      -1.34330000
