21
Properties=species:S:1:pos:R:3 gdb_106793=T pbc="F F F"
C        0.08440000       1.27360000      -0.34930000
O       -0.01580000       0.01520000       0.28980000
C       -1.28240000      -0.55590000       0.22190000
C       -1.78040000      -1.13860000      -1.08850000
C       -1.44090000      -2.05810000       0.07240000
C       -0.24920000      -2.97620000      -0.04890000
C       -2.60830000      -2.46640000       0.97840000
C       -3.09300000      -1.15960000       1.57120000
C       -2.35040000      -0.12410000       1.17720000
H        1.12610000       1.59220000      -0.26480000
H       -0.18940000       1.21100000      -1.41180000
H       -0.55490000       2.03010000       0.12830000
H       -2.81600000      -0.97840000      -1.37230000
H       -1.07350000      -1.15180000      -1.91320000
H        0.57410000      -2.47730000      -0.56670000
H        0.11590000      -3.27850000       0.93910000
H       -0.50280000      -3.88640000      -0.60470000
H       -3.40030000      -2.98210000       0.41940000
H       -2.28280000      -3.16420000       1.76270000
H       -3.96170000      -1.10050000       2.21720000
H       -2.49400000       0.91000000       1.46880000
