22
Properties=species:S:1:pos:R:3 gdb_60444=T pbc="F F F"
C        0.49990000      -0.25770000      -0.29070000
N       -0.51660000      -0.66450000       0.68420000
H       -0.55000000      -2.37080000       0.42190000
C       -0.17170000      -0.18150000       2.02200000
C       -1.86900000      -0.24130000       0.28120000
C       -2.50190000      -1.11600000      -0.80870000
C       -2.83850000      -2.56350000      -0.38700000
C       -1.72330000      -3.60980000      -0.50260000
O       -0.54520000      -3.29740000       0.04790000
O       -1.90320000      -4.67300000      -1.04070000
H        1.47490000      -0.64340000       0.01760000
H        0.27060000      -0.67510000      -1.27300000
H        0.56710000       0.83930000      -0.38100000
H       -0.15680000       0.91990000       2.07930000
H       -0.89640000      -0.55600000       2.74980000
H        0.81850000      -0.55210000       2.30060000
H       -2.50510000      -0.28800000       1.17220000
H       -1.85850000       0.81280000      -0.04570000
H       -3.43760000      -0.62330000      -1.09580000
H       -1.88290000      -1.11980000      -1.71310000
H       -3.19310000      -2.56510000       0.65330000
H       -3.65730000      -2.94640000      -0.99850000
