16
Properties=species:S:1:pos:R:3 gdb_6449=T pbc="F F F"
N       -0.47210000       1.05120000       0.43830000
C        0.00970000      -0.25010000      -0.04320000
C        0.41010000      -1.13490000       1.17830000
C       -1.06240000      -1.64660000       1.22810000
O       -1.88990000      -0.95700000       2.12710000
C       -1.20790000      -1.20180000      -0.25970000
C        0.97840000      -0.13830000      -1.13840000
N        1.74080000      -0.02520000      -2.00120000
H        0.30880000       1.61580000       0.76340000
H       -0.91160000       1.56530000      -0.32130000
H        1.11540000      -1.91840000       0.89330000
H        0.77930000      -0.60190000       2.05720000
H       -1.19690000      -2.71080000       1.42890000
H       -1.76380000      -0.01470000       1.94140000
H       -2.14740000      -0.72300000      -0.54400000
H       -0.97090000      -2.00470000      -0.96100000
