16
Properties=species:S:1:pos:R:3 gdb_62454=T pbc="F F F"
C       -0.06120000       1.55820000       0.03240000
C        0.01000000       0.04370000       0.05680000
C       -1.15830000      -0.64870000      -0.42190000
N       -2.08930000      -1.22090000      -0.80340000
C        1.33260000      -0.70480000      -0.20980000
O        2.49160000       0.08090000      -0.16220000
C        2.84220000       0.16120000       1.21240000
O        1.63030000       0.07430000       1.94910000
C        0.77050000      -0.70920000       1.16830000
H        0.86480000       1.98920000       0.41050000
H       -0.21930000       1.91570000      -0.98840000
H       -0.88800000       1.91080000       0.65470000
H        1.36050000      -1.55420000      -0.88230000
H        3.51600000      -0.66680000       1.48470000
H        3.31280000       1.12770000       1.40740000
H        0.32190000      -1.56230000       1.66380000
