14
Properties=species:S:1:pos:R:3 gdb_25615=T pbc="F F F"
O        0.27270000       0.11190000      -0.30600000
C        0.31780000       1.30320000      -0.32060000
O        0.84870000       2.02280000       0.69150000
C        0.91270000       3.44190000       0.53240000
C        2.30320000       3.86750000       0.19220000
C        3.43290000       3.12810000       0.08390000
O        4.45590000       3.97630000      -0.24270000
C        3.87530000       5.19250000      -0.31040000
N        2.60620000       5.20070000      -0.06490000
H       -0.07010000       1.93960000      -1.13990000
H        0.20940000       3.77970000      -0.24040000
H        0.59010000       3.88220000       1.48090000
H        3.67730000       2.08750000       0.19920000
H        4.51440000       6.02470000      -0.56010000
