15
Properties=species:S:1:pos:R:3 gdb_23518=T pbc="F F F"
O       -0.09650000       1.35160000      -0.05200000
N        0.04720000      -0.04890000      -0.05340000
C       -1.07670000      -0.62450000      -0.06930000
C       -2.54680000      -0.29690000       0.05770000
C       -3.26670000      -1.01550000      -1.09590000
C       -2.46880000      -2.34780000      -1.11060000
C       -3.64700000      -2.15790000      -0.20860000
N       -2.71770000      -1.61260000       0.87510000
C       -1.48430000      -2.06910000       0.03900000
H        0.81920000       1.64760000      -0.00490000
H       -2.92250000       0.63730000       0.46660000
H       -3.74920000      -0.61550000      -1.97720000
H       -2.35300000      -2.94780000      -2.00290000
H       -4.56250000      -2.70840000      -0.03870000
H       -0.83650000      -2.85100000       0.42850000
