18
Properties=species:S:1:pos:R:3 gdb_67731=T pbc="F F F"
C        0.00180000       1.52750000       0.01230000
C        0.04310000       0.01950000      -0.02920000
C        0.46490000      -0.71210000      -1.29990000
C        0.37970000      -2.00910000      -1.00410000
C       -0.09160000      -2.00570000       0.44340000
O       -0.37670000      -3.18830000       1.11840000
C        0.62710000      -0.80270000       1.17790000
N       -0.60380000      -0.48740000       1.99170000
C       -1.11540000      -0.83540000       0.61410000
H        0.99100000       1.95300000      -0.19030000
H       -0.68880000       1.92240000      -0.74110000
H       -0.32700000       1.86810000       0.99670000
H        0.75630000      -0.23450000      -2.22580000
H        0.57070000      -2.88160000      -1.61380000
H        0.43240000      -3.70620000       1.18610000
H        1.63890000      -0.75820000       1.59500000
H       -0.79290000      -1.28100000       2.61050000
H       -2.17960000      -0.83010000       0.35990000
