16
Properties=species:S:1:pos:R:3 gdb_84975=T pbc="F F F"
C       -0.11190000       1.57400000       0.01710000
C        0.02590000       0.04250000      -0.01660000
C        0.80570000      -0.50500000      -1.23160000
C        1.94080000      -1.36570000      -0.66350000
O        2.75060000      -2.00000000      -1.28570000
C        1.84100000      -1.25850000       0.83130000
C        0.79090000      -0.49050000       1.16820000
C        2.74690000      -1.90030000       1.71800000
N        3.49140000      -2.42780000       2.43000000
H        0.87100000       2.05550000      -0.00940000
H       -0.68640000       1.92420000      -0.84520000
H       -0.62760000       1.90520000       0.92390000
H       -0.98600000      -0.38480000       0.01230000
H        0.19440000      -1.11040000      -1.90600000
H        1.24480000       0.29620000      -1.83490000
H        0.50190000      -0.25680000       2.18760000
