17
Properties=species:S:1:pos:R:3 gdb_22123=T pbc="F F F"
C       -0.28730000       1.61720000      -0.09590000
C       -0.00870000       0.11250000      -0.00350000
C        1.21440000      -0.35300000      -0.89030000
C        2.00360000      -0.50990000       0.38940000
C        0.80450000      -0.29460000       1.28630000
N        3.24360000      -0.69220000       0.56100000
O        3.55820000      -0.74750000       1.92760000
C       -1.22750000      -0.65910000      -0.21400000
N       -2.19180000      -1.27520000      -0.38060000
H        0.64100000       2.17400000       0.06510000
H       -0.68310000       1.88210000      -1.08020000
H       -1.01230000       1.92750000       0.66160000
H        1.03550000      -1.29600000      -1.41370000
H        1.57480000       0.38800000      -1.60790000
H        0.90030000       0.48550000       2.04540000
H        0.44840000      -1.21010000       1.76640000
H        4.51230000      -0.88070000       1.91370000
