17
Properties=species:S:1:pos:R:3 gdb_126286=T pbc="F F F"
C        0.08370000       1.52270000      -0.24420000
C        0.00570000       0.01390000       0.05210000
C       -1.39610000      -0.49770000       0.17260000
C       -2.17610000      -0.80760000       1.26620000
C       -3.43030000      -1.20770000       0.73430000
N       -3.42900000      -1.15030000      -0.60460000
N       -2.19460000      -0.71880000      -0.90850000
C       -4.57500000      -1.62800000       1.45810000
C       -5.52590000      -1.97920000       2.10670000
H        1.12550000       1.84830000      -0.31850000
H       -0.41490000       1.76930000      -1.18690000
H       -0.40160000       2.09960000       0.54810000
H        0.53500000      -0.54150000      -0.73280000
H        0.53010000      -0.20460000       0.98710000
H       -1.89200000      -0.76020000       2.30460000
H       -1.95220000      -0.60610000      -1.87910000
H       -6.37130000      -2.29110000       2.66800000
