18
Properties=species:S:1:pos:R:3 gdb_94037=T pbc="F F F"
O       -0.44300000       1.51870000      -0.27370000
C        0.00590000       0.19680000       0.02540000
C       -1.13390000      -0.84830000       0.18410000
C       -1.09880000      -1.72900000      -1.08970000
C        0.23520000      -1.38620000      -1.71630000
C        0.75270000      -2.11080000      -2.93520000
C        0.89900000      -3.55290000      -2.71390000
N        1.00420000      -4.68820000      -2.52680000
C        0.84390000      -0.37700000      -1.09210000
H       -0.83090000       1.49960000      -1.15580000
H        0.57020000       0.31670000       0.95540000
H       -0.94680000      -1.46590000       1.06680000
H       -2.09010000      -0.34280000       0.33750000
H       -1.17540000      -2.79700000      -0.85830000
H       -1.92110000      -1.51240000      -1.78600000
H        0.06350000      -1.97410000      -3.78010000
H        1.72050000      -1.70310000      -3.24430000
H        1.79870000       0.05370000      -1.37460000
