17
Properties=species:S:1:pos:R:3 gdb_95052=T pbc="F F F"
C       -0.32520000       1.53180000      -0.01760000
C        0.02830000       0.05620000       0.01090000
O        0.92460000      -0.23930000      -1.06230000
C        1.51750000      -1.49780000      -0.78360000
C        1.75410000      -1.50840000       0.72050000
O        2.88670000      -0.65940000       1.10820000
C        2.05390000       0.31000000       1.60940000
O        2.35980000       1.34300000       2.11040000
C        0.76790000      -0.45110000       1.26490000
H        0.56300000       2.14800000       0.13920000
H       -0.76860000       1.78850000      -0.98300000
H       -1.05030000       1.76340000       0.76820000
H       -0.88660000      -0.55140000      -0.10310000
H        0.84000000      -2.32680000      -1.04930000
H        2.43710000      -1.58590000      -1.36630000
H        1.82890000      -2.48970000       1.18740000
H        0.12520000      -0.69300000       2.11020000
