16
Properties=species:S:1:pos:R:3 gdb_91616=T pbc="F F F"
O        0.00020000       1.43970000      -0.03900000
C        0.03640000       0.03390000       0.03020000
C        0.58350000      -0.55990000       1.37070000
C       -0.65310000      -1.34280000       1.83650000
O       -1.20620000      -1.83020000       0.63190000
C       -1.41220000      -0.53120000       0.04540000
C       -2.16970000       0.15350000       1.16770000
N       -3.08830000       1.00660000       1.09060000
O       -1.63280000      -0.39320000       2.31420000
H        0.90090000       1.76500000      -0.12770000
H        0.56800000      -0.39640000      -0.82740000
H        1.43200000      -1.23030000       1.21640000
H        0.86110000       0.22770000       2.07370000
H       -0.53160000      -2.13410000       2.57340000
H       -1.92940000      -0.59140000      -0.90670000
H       -3.40650000       1.28620000       2.02030000
