19
Properties=species:S:1:pos:R:3 gdb_28567=T pbc="F F F"
C        0.17780000       1.40830000       0.17500000
C       -0.04260000      -0.05230000       0.01450000
C       -1.12690000      -0.81470000      -0.28330000
C       -0.68340000      -2.17960000      -0.28960000
C        0.64460000      -2.15530000       0.00580000
O        1.04810000      -0.86220000       0.19380000
C        1.65870000      -3.20500000       0.14970000
C        3.09300000      -2.97320000      -0.28730000
C        2.77000000      -3.08480000       1.17560000
H        0.91860000       1.78760000      -0.53880000
H       -0.75990000       1.94320000       0.00850000
H        0.53830000       1.65600000       1.18040000
H       -2.12430000      -0.45050000      -0.47610000
H       -1.27480000      -3.06000000      -0.48750000
H        1.25800000      -4.19930000      -0.01460000
H        3.61150000      -3.79360000      -0.77090000
H        3.33320000      -1.99040000      -0.67590000
H        2.79380000      -2.17670000       1.76670000
H        3.06410000      -3.98260000       1.70760000
