22
Properties=species:S:1:pos:R:3 gdb_95627=T pbc="F F F"
C        0.04840000       1.58010000      -0.05960000
C        0.04530000       0.04670000       0.01750000
C        0.59000000      -0.54420000      -1.28650000
C        0.89010000      -2.03260000      -1.15020000
C        1.95990000      -2.20780000      -0.07550000
C        1.64230000      -1.50500000       1.23910000
O        2.15890000      -1.88610000       2.27770000
N        0.77640000      -0.43410000       1.20230000
C        0.36660000       0.13160000       2.48230000
H        1.07440000       1.96040000      -0.10250000
H       -0.47480000       1.90090000      -0.96570000
H       -0.45380000       2.04180000       0.79330000
H       -1.00320000      -0.28050000       0.12600000
H       -0.14170000      -0.34940000      -2.07740000
H        1.50970000      -0.01380000      -1.56810000
H       -0.02170000      -2.57510000      -0.86880000
H        1.22710000      -2.45390000      -2.10300000
H        2.13880000      -3.25520000       0.17800000
H        2.91820000      -1.80830000      -0.43290000
H        0.75670000      -0.50790000       3.27210000
H        0.75660000       1.14500000       2.62600000
H       -0.72820000       0.17150000       2.54360000
