19
Properties=species:S:1:pos:R:3 gdb_41194=T pbc="F F F"
C       -0.03340000       1.61730000      -0.18150000
C        1.53430000       1.46430000       0.06760000
C        1.16300000       0.19560000       0.88320000
C        1.22680000      -1.35330000       1.00760000
C       -0.37560000      -1.22170000       0.97280000
O       -0.85110000      -0.94860000       2.26590000
C       -0.44030000       0.34060000       2.67340000
O        0.85130000       0.66960000       2.22310000
C       -0.08260000       0.05670000       0.06120000
H       -0.49940000       2.22740000       0.59080000
H       -0.35420000       1.96670000      -1.16480000
H        2.06300000       1.23510000      -0.86100000
H        2.04370000       2.26590000       0.60590000
H        1.62290000      -1.86250000       0.12680000
H        1.64130000      -1.77020000       1.92750000
H       -0.96750000      -2.04540000       0.56940000
H       -1.17430000       1.07480000       2.30370000
H       -0.42580000       0.35540000       3.76660000
H        0.20880000      -0.38460000      -0.89670000
