17
Properties=species:S:1:pos:R:3 gdb_92808=T pbc="F F F"
O       -0.04670000       1.46380000       0.07370000
C        0.03990000       0.05630000       0.01220000
C        0.54080000      -0.56330000       1.37300000
C       -0.74370000      -0.76250000       2.17750000
C       -1.76440000      -0.79400000       1.32690000
C       -3.15740000      -0.29410000       1.01830000
O       -2.92230000       1.08050000       0.60850000
C       -2.72450000       0.04390000      -0.36250000
C       -1.34040000      -0.62160000      -0.11830000
H       -0.85370000       1.68210000       0.56040000
H        0.72870000      -0.17300000      -0.80640000
H        1.08410000      -1.50390000       1.20570000
H        1.23390000       0.12760000       1.86440000
H       -0.77690000      -0.76800000       3.26060000
H       -4.13300000      -0.51530000       1.43060000
H       -3.29910000       0.11720000      -1.27800000
H       -1.28980000      -1.57720000      -0.65460000
