19
Properties=species:S:1:pos:R:3 gdb_31483=T pbc="F F F"
C        0.21160000       1.36720000      -0.11030000
C       -0.05560000      -0.09470000      -0.06260000
C       -1.19180000      -0.84860000      -0.01880000
C       -2.61290000      -0.37590000      -0.00210000
C       -0.75020000      -2.21870000       0.00490000
C        0.60600000      -2.20210000      -0.01840000
C        1.66490000      -3.24790000      -0.03490000
O        2.38340000      -3.30500000      -1.26430000
O        1.04680000      -0.90730000      -0.05770000
H        0.75600000       1.64790000      -1.01970000
H       -0.72680000       1.92520000      -0.09400000
H        0.81530000       1.69340000       0.74460000
H       -3.17270000      -0.76010000      -0.86270000
H       -3.13770000      -0.71580000       0.89830000
H       -2.67740000       0.71500000      -0.02830000
H       -1.37470000      -3.09920000       0.03360000
H        2.35610000      -3.09410000       0.80920000
H        1.19670000      -4.22700000       0.09520000
H        2.72730000      -2.42070000      -1.42890000
