23
Properties=species:S:1:pos:R:3 gdb_99279=T pbc="F F F"
C        0.09270000       1.39510000       0.01450000
O       -0.03770000      -0.02610000      -0.10650000
C       -1.28710000      -0.50830000       0.06940000
O       -2.24110000       0.19140000       0.30110000
C       -1.29970000      -2.01850000      -0.05450000
C       -2.71380000      -2.60170000      -0.06420000
C       -2.76760000      -4.13910000      -0.03090000
C       -4.21590000      -4.61490000       0.14650000
C       -2.13960000      -4.77900000      -1.27760000
H        1.14810000       1.61230000      -0.15160000
H       -0.52420000       1.90490000      -0.73010000
H       -0.21430000       1.72920000       1.00900000
H       -0.73220000      -2.28490000      -0.95200000
H       -0.71880000      -2.41850000       0.78780000
H       -3.25760000      -2.19900000       0.79690000
H       -3.24980000      -2.23660000      -0.94990000
H       -2.19400000      -4.47490000       0.84610000
H       -4.83620000      -4.30340000      -0.70250000
H       -4.26970000      -5.70650000       0.21300000
H       -4.66420000      -4.19900000       1.05480000
H       -2.66000000      -4.45240000      -2.18640000
H       -1.08190000      -4.52140000      -1.38840000
H       -2.20740000      -5.87090000      -1.23260000
