18
Properties=species:S:1:pos:R:3 gdb_105968=T pbc="F F F"
C        0.02940000       1.42410000       0.18550000
C       -0.02850000      -0.05490000       0.04310000
C       -0.13340000      -0.98630000      -1.13960000
C        0.76610000      -1.97890000      -0.36720000
N        0.89130000      -1.02780000       0.79770000
C       -0.22290000      -2.05560000       0.73990000
C       -0.41270000      -3.00060000       1.87690000
O       -0.79400000      -2.32020000       3.06090000
C       -1.15670000      -1.05460000       0.01000000
H        1.01410000       1.80860000      -0.10220000
H       -0.72310000       1.89750000      -0.45380000
H       -0.16540000       1.72610000       1.22070000
H       -0.29650000      -0.78850000      -2.18940000
H        1.57340000      -2.64110000      -0.65870000
H       -1.21160000      -3.71790000       1.65910000
H        0.52000000      -3.57180000       2.01520000
H       -0.14110000      -1.62040000       3.18370000
H       -2.22870000      -0.92010000      -0.02070000
