19
Properties=species:S:1:pos:R:3 gdb_69453=T pbc="F F F"
C        0.23430000       1.46930000       0.11160000
C        0.16360000      -0.03570000       0.04120000
C       -0.90940000      -0.81260000       0.76520000
C        0.53320000      -0.95090000       1.18800000
C        1.28720000      -2.11790000       0.55420000
O        0.95760000      -2.08680000      -0.81900000
C        0.70500000      -0.73180000      -1.20060000
C        2.78110000      -1.96300000       0.81710000
O        3.58750000      -1.61150000      -0.00190000
H        1.25750000       1.82630000      -0.05080000
H       -0.40460000       1.93180000      -0.64970000
H       -0.09970000       1.83640000       1.08680000
H       -1.56410000      -0.25680000       1.42810000
H       -1.37610000      -1.65280000       0.26010000
H        0.85850000      -0.56550000       2.14780000
H        0.97400000      -3.09520000       0.94970000
H       -0.00170000      -0.76120000      -2.03700000
H        1.63060000      -0.24390000      -1.53520000
H        3.07770000      -2.19030000       1.86990000
