21
Properties=species:S:1:pos:R:3 gdb_38200=T pbc="F F F"
C        0.03100000       1.66730000       0.08030000
C        1.54830000       1.35160000       0.04330000
C        1.18850000       0.08920000       0.90600000
C       -0.08090000       0.10590000       0.01090000
C       -1.40660000      -0.58240000      -0.03380000
C       -1.76400000      -0.76980000      -1.31130000
C       -0.69350000      -0.30150000      -2.29530000
C        0.53400000      -0.22630000      -1.36950000
C        1.69080000       0.80990000      -1.40570000
H       -0.30470000       2.05930000       1.04360000
H       -0.39860000       2.25580000      -0.73590000
H        2.29170000       2.07260000       0.38580000
H        1.83910000      -0.78930000       0.84950000
H        1.00370000       0.35670000       1.94950000
H       -2.02800000      -0.79530000       0.82870000
H       -2.72260000      -1.16030000      -1.63750000
H       -0.56230000      -0.98380000      -3.14170000
H       -0.96550000       0.67620000      -2.71940000
H        0.94830000      -1.24000000      -1.31430000
H        1.54440000       1.60800000      -2.14120000
H        2.66270000       0.34860000      -1.60290000
