17
Properties=species:S:1:pos:R:3 gdb_32376=T pbc="F F F"
C        0.10000000       1.56490000       0.12930000
C       -0.13290000       0.06100000      -0.09100000
C        0.64400000      -0.49600000      -1.24790000
C        0.14830000      -0.97680000      -2.42350000
O        1.13860000      -1.38760000      -3.25250000
C        2.32050000      -1.16710000      -2.59480000
C        2.06560000      -0.62220000      -1.36580000
C        3.51480000      -1.51590000      -3.24850000
C        4.54580000      -1.81000000      -3.79790000
H        1.15640000       1.77760000       0.32110000
H       -0.19880000       2.13940000      -0.75270000
H       -0.47700000       1.92690000       0.98580000
H        0.13460000      -0.48190000       0.82440000
H       -1.20050000      -0.12380000      -0.25450000
H       -0.85490000      -1.09100000      -2.80220000
H        2.81060000      -0.35010000      -0.63440000
H        5.45410000      -2.06970000      -4.28250000
