23
Properties=species:S:1:pos:R:3 gdb_121145=T pbc="F F F"
C        0.14440000       1.34660000      -0.00630000
O        0.05450000      -0.04790000       0.15890000
C       -1.20920000      -0.56660000      -0.20260000
C       -1.17820000      -2.05880000       0.06260000
C       -1.23530000      -2.50940000       1.53300000
O       -2.41520000      -3.30370000       1.30030000
C       -2.47790000      -2.90970000      -0.10280000
C       -3.78160000      -2.16970000      -0.38530000
C       -2.32170000      -4.12790000      -1.00540000
H        1.14950000       1.64870000       0.29810000
H       -0.01420000       1.64570000      -1.05480000
H       -0.59120000       1.88120000       0.61570000
H       -2.00150000      -0.07440000       0.38550000
H       -1.42000000      -0.36110000      -1.26690000
H       -0.33380000      -2.48470000      -0.48520000
H       -0.39350000      -3.11450000       1.88880000
H       -1.41670000      -1.70160000       2.25430000
H       -3.92230000      -1.33070000       0.30000000
H       -3.81220000      -1.79340000      -1.41350000
H       -4.62480000      -2.85480000      -0.25060000
H       -3.16870000      -4.80930000      -0.87450000
H       -2.28090000      -3.82990000      -2.05920000
H       -1.40510000      -4.67350000      -0.76400000
