17
Properties=species:S:1:pos:R:3 gdb_32810=T pbc="F F F"
C        0.00260000       1.49290000      -0.05100000
C       -0.00290000      -0.02420000      -0.05190000
O        0.69150000      -0.45270000       1.12660000
C        0.79780000      -1.77510000       1.31380000
C        1.41480000      -2.39190000       2.36230000
N        2.07850000      -1.92540000       3.48390000
O        1.27220000      -3.76550000       2.12870000
C        0.59410000      -3.84900000       0.97930000
N        0.27870000      -2.71150000       0.44000000
H        1.02640000       1.87720000      -0.06220000
H       -0.51900000       1.86810000      -0.93660000
H       -0.49990000       1.88210000       0.83890000
H       -1.02380000      -0.42330000      -0.04260000
H        0.49650000      -0.42820000      -0.94020000
H        1.63520000      -2.18770000       4.35760000
H        3.05660000      -2.19190000       3.51830000
H        0.37040000      -4.83670000       0.60570000
