23
Properties=species:S:1:pos:R:3 gdb_89150=T pbc="F F F"
C        0.18580000       1.63290000      -0.06310000
C        0.11770000       0.11480000       0.01210000
C        1.03710000      -0.74700000      -0.90580000
C        1.30350000      -1.73010000       0.27910000
C        0.78960000      -3.14410000       0.12010000
C        2.66990000      -1.51060000       0.95630000
O        3.74890000      -1.34990000       0.06060000
C        2.10800000      -0.26390000       1.70250000
C        0.67000000      -0.64880000       1.24240000
H        1.20860000       2.00280000       0.06350000
H       -0.17030000       1.99010000      -1.03600000
H       -0.43630000       2.09920000       0.70960000
H       -0.92260000      -0.19920000      -0.13550000
H        0.55450000      -1.19190000      -1.77980000
H        1.94350000      -0.23540000      -1.23800000
H        1.37580000      -3.68900000      -0.63000000
H        0.85040000      -3.70210000       1.06170000
H       -0.25620000      -3.15530000      -0.20740000
H        2.87190000      -2.32870000       1.66510000
H        4.54710000      -1.18830000       0.57320000
H        2.27060000      -0.24900000       2.78280000
H        2.47640000       0.67680000       1.28490000
H       -0.02690000      -0.90460000       2.04320000
