21
Properties=species:S:1:pos:R:3 gdb_40850=T pbc="F F F"
C        0.09930000       1.41640000      -0.58060000
C        1.35890000       1.69300000       0.28740000
C        1.26110000       0.23900000       0.81320000
C       -0.19700000       0.16630000       0.29470000
C        2.30820000      -0.82990000       0.44320000
C        3.24280000      -0.42900000       1.63880000
C        3.34900000      -1.88240000       2.14020000
C        1.89540000      -1.75110000       1.64520000
C        1.77110000      -0.27420000       2.16690000
H       -0.66540000       2.19550000      -0.61790000
H        0.36280000       1.14280000      -1.60600000
H        2.27790000       1.98580000      -0.22830000
H        1.15780000       2.42620000       1.07580000
H       -0.92240000       0.38500000       1.08560000
H       -0.50970000      -0.74940000      -0.21510000
H        2.63500000      -1.16770000      -0.54330000
H        4.00340000       0.35290000       1.62380000
H        4.00480000      -2.55350000       1.57520000
H        3.49230000      -2.02330000       3.21670000
H        1.09920000      -2.49670000       1.63750000
H        1.47840000       0.02890000       3.17510000
