20
Properties=species:S:1:pos:R:3 gdb_115172=T pbc="F F F"
C        0.27210000       1.13520000       0.49720000
O        0.14750000      -0.22540000       0.15090000
C        0.55050000      -0.53100000      -1.16770000
C        2.07510000      -0.70060000      -1.28150000
O        2.34340000      -2.05580000      -0.89550000
C        1.20570000      -2.81000000      -0.98830000
N        1.12980000      -4.03440000      -0.69440000
C        0.07030000      -1.95100000      -1.51440000
C       -1.31280000      -2.35600000      -1.01730000
H        1.31570000       1.48310000       0.47690000
H       -0.31770000       1.77740000      -0.17510000
H       -0.10840000       1.24330000       1.51530000
H        0.17220000       0.22810000      -1.86730000
H        2.42120000      -0.53660000      -2.31030000
H        2.63220000      -0.04150000      -0.61190000
H        2.03500000      -4.38670000      -0.37860000
H        0.10320000      -2.03470000      -2.61020000
H       -1.39360000      -2.20170000       0.05940000
H       -2.09250000      -1.76820000      -1.51120000
H       -1.47910000      -3.41430000      -1.22860000
