11
Properties=species:S:1:pos:R:3 gdb_43663=T pbc="F F F"
O       -0.04590000      -0.02230000       0.04720000
C       -0.00660000       1.16460000       0.03200000
O       -1.09350000       1.98030000       0.03350000
C       -0.67330000       3.34850000      -0.00020000
O        0.75830000       3.35480000       0.01610000
C        1.22440000       2.07820000       0.02050000
O        2.37190000       1.77220000       0.02440000
C       -1.18530000       4.02320000      -1.18220000
C       -1.62270000       4.59880000      -2.13900000
H       -1.02290000       3.83110000       0.91830000
H       -2.00600000       5.10470000      -2.99220000
