15
Properties=species:S:1:pos:R:3 gdb_28636=T pbc="F F F"
C       -0.04600000       1.51280000       0.02730000
C       -0.00850000       0.01170000      -0.01120000
C        0.28010000      -0.69830000      -1.18300000
N        0.31830000      -2.02550000      -1.23950000
C        0.06180000      -2.68060000      -0.09530000
C       -0.22820000      -1.97340000       1.08300000
N       -0.26360000      -0.64730000       1.12780000
C        0.08860000      -4.10710000      -0.09500000
C        0.10160000      -5.30970000      -0.05420000
H        0.17730000       1.94570000      -0.95070000
H       -1.03280000       1.86160000       0.34800000
H        0.67920000       1.89400000       0.75330000
H        0.48770000      -0.16740000      -2.10930000
H       -0.43450000      -2.51090000       2.00460000
H        0.11670000      -6.37150000      -0.03340000
