23
Properties=species:S:1:pos:R:3 gdb_118700=T pbc="F F F"
C        0.01410000       1.63600000      -0.17090000
C        0.00670000       0.10650000      -0.04820000
C       -1.42150000      -0.38830000      -0.36410000
C       -2.34960000      -0.39580000       0.84690000
O       -3.65540000      -0.71840000       0.38940000
C        1.20500000      -0.70930000      -0.66920000
C        2.12290000      -0.15430000       0.45780000
C        0.78920000      -0.55370000       1.15690000
C        0.86920000      -1.86540000       0.32270000
H       -0.13890000       1.93100000      -1.21550000
H       -0.81200000       2.06730000       0.40510000
H        0.92990000       2.11450000       0.17710000
H       -1.86560000       0.27090000      -1.11880000
H       -1.43000000      -1.38860000      -0.80310000
H       -1.99470000      -1.13430000       1.58340000
H       -2.33680000       0.58750000       1.34430000
H       -4.24040000      -0.75380000       1.15180000
H        1.44800000      -0.80290000      -1.73020000
H        2.98710000      -0.77430000       0.70990000
H        2.40530000       0.89650000       0.42740000
H        0.55700000      -0.46530000       2.22070000
H       -0.04650000      -2.43440000       0.16880000
H        1.69980000      -2.53200000       0.56770000
