17
Properties=species:S:1:pos:R:3 gdb_80941=T pbc="F F F"
C        0.07840000       1.42280000      -0.04010000
C        0.01790000      -0.06220000       0.09940000
O        0.62450000      -0.90990000      -0.97840000
C        0.08550000      -1.87710000       0.00870000
C        0.72020000      -1.00930000       1.12810000
O        2.10240000      -0.95170000       1.20870000
C       -1.21430000      -1.02540000       0.07480000
C       -2.11980000      -1.10480000       1.19980000
C       -2.88100000      -1.16150000       2.12930000
H        1.11410000       1.76750000       0.03870000
H       -0.32790000       1.74220000      -1.00420000
H       -0.50370000       1.89280000       0.75850000
H        0.19280000      -2.93750000      -0.21850000
H        0.30190000      -1.07490000       2.13260000
H        2.40730000      -0.91330000       0.28990000
H       -1.72790000      -1.00010000      -0.88850000
H       -3.55280000      -1.21560000       2.95020000
