16
Properties=species:S:1:pos:R:3 gdb_46448=T pbc="F F F"
O        0.00260000       0.01730000       0.14650000
C        0.00520000       1.21430000       0.00640000
C       -1.24790000       2.09420000      -0.18680000
N       -0.80790000       3.39470000      -0.71760000
C        0.64920000       3.46700000      -0.55880000
C        1.13710000       3.33690000       0.84870000
C        1.19320000       2.11240000      -0.05920000
C        1.35390000       4.26290000      -1.51620000
C        1.92180000       4.92950000      -2.34020000
H       -1.95260000       1.59700000      -0.85700000
H       -1.75340000       2.20660000       0.78150000
H       -1.00950000       3.44070000      -1.71010000
H        2.09410000       3.78450000       1.08580000
H        0.40400000       3.37020000       1.64780000
H        2.15310000       1.70360000      -0.34480000
H        2.43180000       5.52070000      -3.06020000
