19
Properties=species:S:1:pos:R:3 gdb_74790=T pbc="F F F"
C       -0.04330000       1.50210000       0.04370000
C       -0.05160000       0.01070000      -0.02090000
C       -0.05460000      -0.79830000      -1.07970000
C        0.05370000      -2.23240000      -0.56160000
O       -0.51850000      -2.12460000       0.74710000
C        0.02600000      -0.88950000       1.21440000
C        1.49480000      -1.15550000       1.63290000
C        2.18400000      -2.06270000       0.63330000
C        1.52760000      -2.58370000      -0.40330000
H        0.85990000       1.87870000       0.54090000
H       -0.08400000       1.94620000      -0.95440000
H       -0.89650000       1.88080000       0.62100000
H       -0.02870000      -0.51860000      -2.12520000
H       -0.50650000      -2.98200000      -1.12570000
H       -0.57490000      -0.54050000       2.06000000
H        2.04930000      -0.21230000       1.73390000
H        1.51050000      -1.62370000       2.62590000
H        3.23880000      -2.27080000       0.79380000
H        2.01220000      -3.21530000      -1.14120000
