13
Properties=species:S:1:pos:R:3 gdb_21058=T pbc="F F F"
C        0.14970000       1.39110000      -0.05260000
N        0.11130000      -0.04660000       0.00080000
N        0.17240000      -0.81470000      -1.16690000
C        0.11420000      -2.00970000      -0.72070000
O        0.13710000      -3.12230000      -1.44490000
O        0.01970000      -2.13600000       0.62940000
C        0.01740000      -0.81560000       1.12380000
N       -0.05580000      -0.45370000       2.33310000
H        1.08250000       1.73840000      -0.50850000
H       -0.69490000       1.78130000      -0.62960000
H        0.08830000       1.75170000       0.97490000
H        0.07860000      -3.87760000      -0.84750000
H       -0.11710000      -1.24510000       2.96460000
