12
Properties=species:S:1:pos:R:3 gdb_21510=T pbc="F F F"
N       -0.01660000       1.37300000      -0.01110000
C        0.08060000       0.01650000      -0.11420000
O        1.10350000      -0.59810000      -0.28480000
N       -1.17420000      -0.65750000      -0.03860000
C       -2.47220000      -0.19380000      -0.09540000
N       -3.31930000      -1.17550000       0.00330000
N       -2.58120000      -2.34780000       0.13300000
C       -1.32280000      -2.02020000       0.09740000
H        0.86500000       1.85860000       0.04140000
H       -0.79780000       1.80120000       0.45700000
H       -2.73090000       0.84280000      -0.24220000
H       -0.47510000      -2.68150000       0.16540000
