19
Properties=species:S:1:pos:R:3 gdb_26360=T pbc="F F F"
C       -0.05030000       1.54680000       0.52370000
N       -0.11880000       0.20450000      -0.02940000
C        0.93970000      -0.66470000       0.48810000
C       -1.40270000      -0.36990000      -0.00640000
C       -2.52460000       0.02280000       0.66570000
O       -3.57700000      -0.77920000       0.35490000
C       -3.11920000      -1.71250000      -0.53250000
C       -1.80050000      -1.51090000      -0.79990000
N       -0.92580000      -2.23810000      -1.62350000
H        0.94090000       1.96820000       0.32960000
H       -0.80030000       2.18110000       0.04360000
H       -0.21890000       1.57390000       1.61570000
H        0.88820000      -0.77850000       1.58470000
H        0.86030000      -1.65530000       0.03670000
H        1.91530000      -0.23830000       0.23240000
H       -2.73110000       0.83040000       1.34650000
H       -3.84140000      -2.43210000      -0.87990000
H       -1.41420000      -2.82000000      -2.29250000
H       -0.29740000      -1.61540000      -2.12020000
