18
Properties=species:S:1:pos:R:3 gdb_65368=T pbc="F F F"
O       -0.01800000       1.37540000      -0.05310000
C       -0.00370000      -0.01940000      -0.00510000
C       -0.47240000      -0.71520000       1.26470000
C       -1.36240000      -0.69710000       0.04770000
C       -2.60630000       0.12850000      -0.00350000
C       -3.48630000       0.08850000      -1.22820000
C       -3.95360000      -0.55240000       0.05390000
C        1.04910000      -0.64140000      -0.77970000
N        1.90310000      -1.12990000      -1.38860000
H        0.75250000       1.70260000       0.42540000
H        0.00990000      -1.64050000       1.55730000
H       -0.72840000      -0.04440000       2.07810000
H       -1.41780000      -1.63130000      -0.50430000
H       -2.52440000       1.08710000       0.49570000
H       -3.95520000       1.01160000      -1.54890000
H       -3.19110000      -0.56470000      -2.04270000
H       -3.97300000      -1.63620000       0.10160000
H       -4.74470000      -0.07070000       0.61760000
