21
Properties=species:S:1:pos:R:3 gdb_63051=T pbc="F F F"
C       -0.12380000       1.58760000       0.08530000
C        0.02120000       0.07460000      -0.00510000
C       -1.31410000      -0.63790000       0.22930000
C        0.72470000      -0.54490000      -1.26220000
C        2.06610000       0.13670000      -1.64390000
C        2.73270000      -0.53270000      -0.42160000
O        2.37620000       0.12370000       0.81750000
C        1.11890000      -0.58790000       0.87970000
C        1.52690000      -1.50730000      -0.30210000
H        0.85150000       2.07860000       0.07300000
H       -0.72120000       1.97680000      -0.74770000
H       -0.62770000       1.87510000       1.01560000
H       -2.05130000      -0.34030000      -0.52460000
H       -1.20810000      -1.72750000       0.17620000
H       -1.72260000      -0.38980000       1.21550000
H        0.07410000      -0.87960000      -2.07180000
H        2.46020000      -0.29940000      -2.56850000
H        2.11180000       1.22650000      -1.71440000
H        3.79220000      -0.79450000      -0.45260000
H        0.86860000      -0.88900000       1.90080000
H        1.55380000      -2.59310000      -0.32030000
