20
Properties=species:S:1:pos:R:3 gdb_118366=T pbc="F F F"
O       -0.06950000       1.53180000      -0.08110000
C        0.05940000       0.12200000      -0.15960000
C       -1.33650000      -0.49730000      -0.12080000
N       -2.16800000      -0.18530000      -1.27590000
C       -2.13690000      -1.00910000      -2.36940000
O       -2.65530000      -0.79870000      -3.44350000
C       -2.83440000       1.09130000      -1.32900000
C       -4.26280000       1.15560000      -1.78060000
C       -3.92890000       1.37570000      -0.32760000
H        0.79620000       1.92550000      -0.22290000
H        0.56600000      -0.18500000      -1.08760000
H        0.64130000      -0.27620000       0.68800000
H       -1.22610000      -1.58500000      -0.05030000
H       -1.85140000      -0.15630000       0.78270000
H       -1.57670000      -1.94270000      -2.15080000
H       -2.18550000       1.92160000      -1.58710000
H       -4.55330000       2.00420000      -2.38890000
H       -4.73950000       0.22460000      -2.05690000
H       -4.19160000       0.58480000       0.36680000
H       -3.98520000       2.37580000       0.08670000
