17
Properties=species:S:1:pos:R:3 gdb_65853=T pbc="F F F"
O       -0.04780000       1.42210000       0.10150000
C        0.01960000       0.00420000       0.00960000
C       -1.43230000      -0.52880000      -0.11350000
C       -1.29470000      -1.90730000      -0.76910000
C       -0.03500000      -1.80880000      -1.63900000
O        0.32690000      -2.61690000      -2.45210000
C        0.68300000      -0.49940000      -1.29660000
C        0.69600000      -0.56220000       1.18290000
C        1.27500000      -1.00990000       2.13700000
H        0.81430000       1.74480000       0.38540000
H       -1.94030000      -0.54020000       0.85150000
H       -1.96540000       0.16670000      -0.76990000
H       -1.11480000      -2.69080000      -0.02270000
H       -2.15630000      -2.22030000      -1.36290000
H        0.45930000       0.22910000      -2.08630000
H        1.76520000      -0.63030000      -1.24730000
H        1.77870000      -1.40590000       2.98450000
