21
Properties=species:S:1:pos:R:3 gdb_86659=T pbc="F F F"
C        0.02020000       1.59090000      -0.07820000
C        0.02410000       0.06170000       0.03660000
C        0.68870000      -0.65380000      -1.17070000
C        1.47120000      -1.86200000      -0.59130000
C        2.82640000      -2.02530000      -1.25160000
O        3.26370000      -3.04890000      -1.70870000
C        1.59600000      -1.51360000       0.89160000
C        2.44760000      -2.32870000       1.81470000
C        0.81270000      -0.47990000       1.20370000
H        1.04180000       1.97830000      -0.16010000
H       -0.53780000       1.91750000      -0.96210000
H       -0.44520000       2.05350000       0.79850000
H       -1.02210000      -0.26780000       0.13190000
H       -0.02620000      -0.95540000      -1.93970000
H        1.39560000       0.03920000      -1.64570000
H        0.93970000      -2.81400000      -0.71730000
H        3.42290000      -1.08070000      -1.27760000
H        3.50210000      -2.31660000       1.51240000
H        2.38450000      -1.96320000       2.84280000
H        2.13920000      -3.38180000       1.80550000
H        0.70040000      -0.08370000       2.20890000
