21
Properties=species:S:1:pos:R:3 gdb_65036=T pbc="F F F"
C        0.02410000       1.47000000      -0.52480000
C       -0.01620000       0.02200000      -0.07980000
C        1.20300000      -0.79380000      -0.18160000
O        0.79060000      -0.25370000       1.07750000
C       -1.38020000      -0.65140000      -0.09010000
C       -1.97100000      -0.72810000      -1.49910000
C       -1.51290000      -1.98260000       0.69570000
O       -2.59830000      -1.45690000       1.48640000
C       -2.38780000      -0.13000000       0.97180000
H        1.02070000       1.88370000      -0.35440000
H       -0.21730000       1.57240000      -1.58690000
H       -0.69340000       2.07150000       0.04390000
H        1.12920000      -1.87750000      -0.26940000
H        2.11020000      -0.36060000      -0.60080000
H       -1.30920000      -1.28120000      -2.17500000
H       -2.93670000      -1.24210000      -1.47540000
H       -2.13530000       0.26620000      -1.92600000
H       -1.81710000      -2.85900000       0.11100000
H       -0.64560000      -2.22860000       1.31750000
H       -1.94610000       0.53460000       1.72630000
H       -3.31320000       0.31820000       0.58970000
