18
Properties=species:S:1:pos:R:3 gdb_33734=T pbc="F F F"
N        0.00850000      -1.14160000      -0.03590000
C        0.02210000       0.01480000      -0.02820000
C        0.04290000       1.46070000      -0.00570000
C       -0.30270000       2.28150000       1.29750000
C        0.46600000       3.40130000       0.51310000
C        1.38500000       2.25500000       0.01510000
C       -0.51640000       3.64400000      -0.65090000
C       -0.19540000       3.14160000      -2.03760000
C       -0.83460000       2.21100000      -1.03920000
H       -1.36290000       2.43980000       1.50700000
H        0.22260000       1.91730000       2.18360000
H        0.87780000       4.27300000       1.01890000
H        2.04170000       1.88960000       0.80530000
H        1.95030000       2.36050000      -0.90950000
H       -1.29650000       4.38430000      -0.51700000
H       -0.85980000       3.49120000      -2.82170000
H        0.82430000       3.00560000      -2.37570000
H       -1.84360000       1.84970000      -1.19470000
