19
Properties=species:S:1:pos:R:3 gdb_79077=T pbc="F F F"
C       -0.03340000       1.59740000      -0.06180000
C        0.08860000       0.08160000      -0.00560000
C        0.69890000      -0.70010000      -1.15920000
C        2.27370000      -0.78010000      -1.06190000
C        3.00100000       0.14620000      -0.15950000
C        2.39310000       0.17860000       1.03650000
C        1.13350000      -0.63670000       0.97180000
C        1.36850000      -1.64770000      -0.22380000
O        1.29230000      -3.01990000      -0.20390000
H        0.92520000       2.07260000      -0.28230000
H       -0.74130000       1.88880000      -0.84610000
H       -0.40550000       2.00140000       0.88680000
H       -0.88770000      -0.36400000       0.21210000
H        0.24130000      -0.89790000      -2.12160000
H        2.73370000      -1.20530000      -1.94670000
H        3.87970000       0.70790000      -0.45260000
H        2.67190000       0.79750000       1.88040000
H        0.72020000      -1.00500000       1.91020000
H        2.09420000      -3.36150000       0.20930000
