18
Properties=species:S:1:pos:R:3 gdb_6162=T pbc="F F F"
C       -0.17730000       1.46710000      -0.06070000
C        0.13230000      -0.01370000       0.05420000
O        0.41950000      -0.52460000       1.11880000
C        0.06050000      -0.79370000      -1.21500000
C        0.81340000      -2.11820000      -1.31610000
C       -0.67960000      -2.12900000      -1.28500000
C       -1.43980000      -2.68980000      -0.10760000
O       -1.33560000      -2.27160000      -2.52030000
H        0.53860000       1.95060000      -0.73560000
H       -1.17170000       1.61380000      -0.49760000
H       -0.12930000       1.93590000       0.92270000
H       -0.02720000      -0.21460000      -2.12730000
H        1.30340000      -2.32960000      -2.25920000
H        1.34340000      -2.41020000      -0.41570000
H       -0.93140000      -2.46650000       0.83090000
H       -2.45170000      -2.27410000      -0.07510000
H       -1.52540000      -3.77930000      -0.20370000
H       -1.41050000      -3.21550000      -2.70200000
