18
Properties=species:S:1:pos:R:3 gdb_102997=T pbc="F F F"
C        0.10470000       1.40180000      -0.39570000
C       -0.04200000       0.02590000       0.26230000
C       -1.44820000      -0.55190000       0.13880000
C       -2.46800000       0.13370000       0.88660000
N       -3.29590000       0.67230000       1.49100000
C       -1.92700000      -1.16930000      -1.17460000
O       -0.96960000      -1.19320000      -2.19980000
C       -1.65220000      -2.08260000      -0.01600000
O       -0.54380000      -2.90540000      -0.09260000
H        1.11800000       1.78860000      -0.25230000
H       -0.08860000       1.34040000      -1.47020000
H       -0.59440000       2.12430000       0.03720000
H        0.66410000      -0.68260000      -0.17500000
H        0.20320000       0.08640000       1.32820000
H       -2.94720000      -0.96480000      -1.48800000
H       -1.33110000      -1.70350000      -2.93260000
H       -2.47500000      -2.52900000       0.53240000
H       -0.13710000      -2.73930000      -0.95540000
