19
Properties=species:S:1:pos:R:3 gdb_113259=T pbc="F F F"
C        0.09050000       1.51070000      -0.47830000
C        0.00710000       0.08830000       0.02380000
C        1.21160000      -0.80270000       0.05900000
C        0.54690000      -0.37500000       1.35760000
C        1.25590000       0.53430000       2.33670000
O        2.09090000      -0.19270000       3.22270000
O       -1.16690000      -0.57640000      -0.44190000
C       -2.31200000      -0.34980000       0.23680000
O       -3.36070000      -0.80750000      -0.10390000
H        1.04600000       1.97010000      -0.21600000
H       -0.00620000       1.52040000      -1.56820000
H       -0.70980000       2.13160000      -0.06150000
H        1.08030000      -1.82690000      -0.26930000
H        2.16480000      -0.35410000      -0.20440000
H       -0.04120000      -1.15000000       1.84170000
H        1.82400000       1.30940000       1.79950000
H        0.53080000       1.05000000       2.97580000
H        2.70970000      -0.70050000       2.68680000
H       -2.16460000       0.28530000       1.13030000
