19
Properties=species:S:1:pos:R:3 gdb_38868=T pbc="F F F"
C       -0.02250000       1.53000000       0.01110000
O        1.30120000       2.08250000       0.00380000
C        2.31780000       1.11970000      -0.01010000
C        2.28210000      -0.05570000       1.00430000
C        0.82110000      -0.44650000       1.25510000
C        0.03020000      -0.00140000       0.00120000
C        0.80110000      -0.43090000      -1.27050000
C        2.26600000      -0.04320000      -1.03800000
O        2.82530000      -0.92570000      -0.02660000
H       -0.54370000       1.89930000       0.90500000
H       -0.55800000       1.91030000      -0.86980000
H        3.26880000       1.65180000      -0.01430000
H        2.90900000      -0.03280000       1.89920000
H        0.76800000      -1.52830000       1.41300000
H        0.42490000       0.04690000       2.15030000
H       -0.99050000      -0.39470000       0.00680000
H        0.74540000      -1.51070000      -1.44090000
H        0.39090000       0.07350000      -2.15320000
H        2.87860000      -0.00920000      -1.94240000
