13
Properties=species:S:1:pos:R:3 gdb_5009=T pbc="F F F"
N        0.03510000       1.30920000      -0.08490000
C       -0.02930000      -0.03610000      -0.00690000
N       -1.16070000      -0.66610000       0.08810000
C       -1.09150000      -2.04390000       0.18530000
C        0.06290000      -2.72210000       0.18130000
O        1.26750000      -2.06930000       0.07340000
C        1.29370000      -0.71380000      -0.03080000
N        2.36870000      -0.04480000      -0.14690000
H        0.93540000       1.73240000      -0.23750000
H       -0.81610000       1.83830000      -0.15670000
H       -2.03340000      -2.57290000       0.26840000
H        0.18850000      -3.79200000       0.25560000
H        3.18760000      -0.65270000      -0.15160000
