23
Properties=species:S:1:pos:R:3 gdb_85954=T pbc="F F F"
C       -0.92500000       0.94510000      -0.40850000
C        0.16330000      -0.08360000      -0.14560000
C        1.42510000      -0.08540000      -1.05220000
C        2.32080000      -0.29120000       0.20240000
C        3.56070000       0.59540000       0.32220000
C        1.08580000       0.11910000       1.08760000
C        2.63430000      -1.76910000       0.44230000
C        3.49260000      -2.11320000       1.65160000
O        2.20040000      -2.64320000      -0.27510000
H       -0.51090000       1.96000000      -0.43570000
H       -1.41850000       0.76200000      -1.36960000
H       -1.69570000       0.92090000       0.37030000
H       -0.26970000      -1.08820000      -0.12300000
H        1.48720000      -0.86560000      -1.81140000
H        1.60300000       0.89250000      -1.51090000
H        3.29130000       1.64040000       0.13970000
H        4.01420000       0.54220000       1.31690000
H        4.32520000       0.31740000      -0.41270000
H        1.15680000       1.17100000       1.38470000
H        0.88000000      -0.47740000       1.98160000
H        3.21380000      -1.52620000       2.53200000
H        3.40110000      -3.17880000       1.86510000
H        4.54300000      -1.88810000       1.43490000
