17
Properties=species:S:1:pos:R:3 gdb_51698=T pbc="F F F"
N        0.02640000       1.22480000      -0.08550000
C       -0.01490000      -0.03090000      -0.17750000
O       -0.89770000      -0.73000000       0.56990000
C       -0.99110000      -2.12830000       0.34820000
C       -1.33740000      -2.82810000       1.67140000
O       -2.05790000      -4.00690000       1.29920000
C       -2.56630000      -3.88670000       0.02960000
N       -3.25230000      -4.76820000      -0.55260000
C       -2.16360000      -2.54720000      -0.54580000
H        0.75370000       1.59640000      -0.69260000
H        0.61710000      -0.66570000      -0.81400000
H       -0.04200000      -2.50900000      -0.04890000
H       -0.46420000      -3.12750000       2.25440000
H       -1.96880000      -2.17050000       2.28040000
H       -3.39740000      -5.57370000       0.05900000
H       -2.98150000      -1.82900000      -0.41910000
H       -1.93380000      -2.62020000      -1.60860000
