16
Properties=species:S:1:pos:R:3 gdb_28939=T pbc="F F F"
C       -0.13330000       1.49170000       0.09010000
C       -0.03380000       0.00870000      -0.02360000
C        0.00370000      -0.83260000      -1.10450000
N        0.09900000      -2.15060000      -0.71520000
C        0.11580000      -2.12050000       0.59100000
N        0.04420000      -0.83850000       1.07590000
C        0.03440000      -0.45950000       2.47090000
C       -1.28410000      -0.00720000       2.94370000
N       -2.31270000       0.36140000       3.31700000
H        0.73450000       1.93220000       0.59770000
H       -0.18080000       1.92770000      -0.91010000
H       -1.03010000       1.80900000       0.63490000
H       -0.03060000      -0.55560000      -2.14770000
H        0.18260000      -2.97240000       1.25270000
H        0.34600000      -1.32190000       3.06730000
H        0.76120000       0.33890000       2.65660000
