19
Properties=species:S:1:pos:R:3 gdb_121592=T pbc="F F F"
C        0.18960000       1.42750000       0.16950000
C        0.25800000      -0.08670000      -0.04200000
C        0.27340000      -0.46310000      -1.52860000
N        0.32250000      -1.89620000      -1.74760000
C        1.38320000      -2.54100000      -2.26300000
O        2.43170000      -2.04030000      -2.64520000
C        1.13780000      -4.06560000      -2.33550000
N        2.19610000      -4.70680000      -2.86370000
O        0.09890000      -4.57390000      -1.94870000
H        1.05210000       1.92970000      -0.28180000
H       -0.71440000       1.85280000      -0.28060000
H        0.17880000       1.67650000       1.23440000
H        1.15690000      -0.49620000       0.43320000
H       -0.59890000      -0.57040000       0.44430000
H       -0.61350000      -0.05140000      -2.02750000
H        1.15520000      -0.04400000      -2.02100000
H       -0.44700000      -2.49600000      -1.47880000
H        2.99150000      -4.15090000      -3.13770000
H        2.18620000      -5.70600000      -2.97390000
