20
Properties=species:S:1:pos:R:3 gdb_55651=T pbc="F F F"
C        0.00980000       1.55820000      -0.07180000
C       -0.02010000       0.04720000       0.11350000
O       -0.07270000      -0.46740000       1.21670000
N        0.03450000      -0.67320000      -1.04850000
C        0.12430000      -2.13790000      -1.12440000
C        1.41800000      -2.67150000      -0.49740000
C       -1.12530000      -2.79160000      -0.48340000
C        0.05010000      -2.49170000      -2.61060000
O        0.61490000      -3.41630000      -3.12720000
H        1.02770000       1.92040000       0.10540000
H       -0.30430000       1.88170000      -1.06790000
H       -0.63890000       2.01200000       0.67890000
H        0.15020000      -0.15590000      -1.90590000
H        1.42270000      -2.45640000       0.57190000
H        1.49190000      -3.74910000      -0.65750000
H        2.29110000      -2.20090000      -0.95850000
H       -2.04080000      -2.45900000      -0.98320000
H       -1.05670000      -3.87960000      -0.56500000
H       -1.17810000      -2.50570000       0.56710000
H       -0.63060000      -1.82740000      -3.19830000
