17
Properties=species:S:1:pos:R:3 gdb_14647=T pbc="F F F"
C        0.07630000       1.44270000      -0.06940000
C       -0.01400000      -0.01050000      -0.06920000
C       -0.07600000      -1.21300000      -0.08040000
C       -0.19740000      -2.66520000      -0.07280000
C       -1.57300000      -3.12980000       0.45810000
N       -1.69600000      -4.57700000       0.51260000
C       -2.05450000      -5.31790000      -0.56970000
O       -2.33040000      -4.86260000      -1.65950000
H        0.32020000       1.82630000      -1.06630000
H       -0.87090000       1.90010000       0.23710000
H        0.85160000       1.79540000       0.62000000
H       -0.07210000      -3.06690000      -1.08490000
H        0.59530000      -3.10960000       0.54330000
H       -1.74380000      -2.72560000       1.45930000
H       -2.35740000      -2.75150000      -0.20090000
H       -1.43220000      -5.06130000       1.35540000
H       -2.07840000      -6.40220000      -0.34040000
