15
Properties=species:S:1:pos:R:3 gdb_50657=T pbc="F F F"
O       -0.68480000       0.76050000       0.56840000
C        0.11110000       1.04060000      -0.28220000
C        1.42150000       1.78080000       0.00280000
O        2.45660000       0.96110000      -0.41060000
C        3.70980000       1.63000000      -0.28900000
C        3.72830000       2.80230000      -1.26620000
C        2.44570000       3.62020000      -1.24320000
O        2.35410000       4.72450000      -1.69370000
O        1.33370000       3.01260000      -0.73380000
H       -0.02550000       0.79230000      -1.35520000
H        1.49180000       2.03080000       1.07160000
H        3.84970000       1.97050000       0.74760000
H        4.48440000       0.89560000      -0.51690000
H        4.56520000       3.48140000      -1.08810000
H        3.82960000       2.42550000      -2.29060000
