19
Properties=species:S:1:pos:R:3 gdb_72175=T pbc="F F F"
O       -0.07460000       1.40360000       0.03730000
C       -0.01080000       0.01660000      -0.04290000
C        0.29380000      -0.79810000      -1.32920000
C       -0.34750000      -1.90750000      -0.46840000
O        0.62890000      -2.10590000       0.57360000
C        0.73010000      -0.75760000       1.09100000
C       -0.20590000      -0.66380000       2.29540000
C       -1.58960000      -0.97210000       1.64720000
C       -1.30260000      -0.82990000       0.14690000
H        0.81920000       1.75690000      -0.03460000
H       -0.33050000      -0.47600000      -2.16510000
H        1.33060000      -0.95070000      -1.63840000
H       -0.68510000      -2.86530000      -0.85890000
H        1.77760000      -0.49630000       1.26660000
H        0.07390000      -1.37370000       3.07700000
H       -0.17940000       0.34620000       2.71830000
H       -1.93780000      -1.97910000       1.89400000
H       -2.36050000      -0.26990000       1.97470000
H       -2.13600000      -0.55860000      -0.50090000
