15
Properties=species:S:1:pos:R:3 gdb_1152=T pbc="F F F"
O       -0.07440000       1.32070000       0.01880000
C        0.02030000      -0.05520000      -0.00320000
C        0.66140000      -1.00460000       1.06240000
C        0.03580000      -1.90870000      -0.02410000
O        0.08450000      -3.28590000       0.03510000
C       -1.22070000      -0.97670000      -0.00500000
C        0.64860000      -0.96440000      -1.10730000
H        0.81630000       1.68710000       0.01650000
H        1.75320000      -1.01070000       1.12850000
H        0.18790000      -1.02520000       2.04690000
H       -0.36420000      -3.63990000      -0.74020000
H       -1.82300000      -0.98650000       0.90660000
H       -1.83770000      -0.95720000      -0.90800000
H        0.16020000      -0.94840000      -2.08590000
H        1.73930000      -0.96340000      -1.19030000
