15
Properties=species:S:1:pos:R:3 gdb_28163=T pbc="F F F"
C        0.11740000       1.43750000       0.03560000
C       -0.07900000      -0.03300000       0.00390000
C       -1.16940000      -0.83000000      -0.19000000
C       -0.70040000      -2.19130000      -0.10280000
C        0.63250000      -2.05550000       0.13610000
O        1.31210000      -3.19630000       0.26080000
C        0.32840000      -4.16780000       0.08660000
C       -0.89840000      -3.61790000      -0.13490000
O        1.07640000      -0.79960000       0.21280000
H        0.82090000       1.77020000      -0.73660000
H       -0.83920000       1.93580000      -0.13720000
H        0.50890000       1.77440000       1.00260000
H       -2.17010000      -0.46890000      -0.37020000
H        0.68610000      -5.18060000       0.15290000
H       -1.80880000      -4.17360000      -0.29680000
