21
Properties=species:S:1:pos:R:3 gdb_76224=T pbc="F F F"
C       -0.17490000       1.56020000       0.00190000
C        0.01400000       0.03730000      -0.01250000
C        0.80510000      -0.51220000      -1.19540000
C        0.46940000      -0.15120000      -2.60830000
C        1.77240000      -1.34270000      -0.78550000
C        1.84560000      -1.43810000       0.69910000
C        2.20430000      -0.13830000       1.41830000
C        0.76190000      -0.52100000       1.20540000
O       -0.00060000      -0.90060000       2.31360000
H        0.78800000       2.08130000       0.00530000
H       -0.74030000       1.90340000      -0.87010000
H       -0.73030000       1.87110000       0.89390000
H       -0.98620000      -0.42350000      -0.01030000
H        0.59990000       0.92180000      -2.79800000
H        1.09910000      -0.69470000      -3.31810000
H       -0.57940000      -0.38130000      -2.83850000
H        2.45160000      -1.87280000      -1.44510000
H        2.06830000      -2.37620000       1.19440000
H        2.56130000      -0.23610000       2.43870000
H        2.65620000       0.66110000       0.84010000
H       -0.14750000      -0.11790000       2.85570000
