21
Properties=species:S:1:pos:R:3 gdb_90452=T pbc="F F F"
C        0.16610000       1.66420000       0.10950000
C        0.13180000       0.15490000       0.07070000
O       -1.13040000      -0.35740000      -0.30800000
C        1.29240000      -0.72610000      -0.35170000
C        2.72430000      -0.20690000      -0.34210000
C        3.05550000       0.23390000       1.10660000
O        3.22810000       1.65270000       1.10970000
C        1.87710000      -0.25080000       2.00290000
C        0.77470000      -0.75400000       1.08200000
H        1.12930000       2.05380000       0.44070000
H       -0.03370000       2.07110000      -0.89070000
H       -0.61790000       2.03410000       0.77910000
H       -1.29520000      -0.07590000      -1.21500000
H        1.04310000      -1.53360000      -1.03190000
H        3.39820000      -1.01100000      -0.65440000
H        2.89830000       0.63630000      -1.01830000
H        3.99460000      -0.22850000       1.44030000
H        3.40080000       1.92690000       2.01610000
H        2.20760000      -1.07560000       2.64350000
H        1.55290000       0.55760000       2.66940000
H        0.15440000      -1.57520000       1.42330000
