17
Properties=species:S:1:pos:R:3 gdb_43076=T pbc="F F F"
O       -0.02940000       0.00360000      -0.06850000
C       -0.03630000       1.19540000       0.03680000
C       -1.10190000       2.29980000       0.03150000
C       -0.82900000       2.88860000       1.42700000
C        0.70960000       3.22610000       1.23200000
C        0.70820000       4.61840000       0.62720000
C        0.20800000       4.52610000      -0.60820000
C       -0.02840000       3.07310000      -0.90620000
C        1.00520000       2.30870000      -0.00100000
H       -2.12800000       2.12940000      -0.28370000
H       -1.41110000       3.78340000       1.65640000
H       -1.00220000       2.14540000       2.21110000
H        1.32810000       3.07210000       2.11500000
H        0.91810000       5.52180000       1.18640000
H       -0.05160000       5.33570000      -1.27800000
H       -0.08740000       2.76120000      -1.94760000
H        2.04300000       2.16470000      -0.29500000
