18
Properties=species:S:1:pos:R:3 gdb_83145=T pbc="F F F"
C       -0.22540000       1.49000000       0.04930000
N        0.05980000       0.05770000       0.07200000
C        1.34770000      -0.47800000      -0.31960000
C        2.54170000       0.45830000      -0.32550000
O        2.63110000       1.01370000       0.99780000
C        1.79630000       0.36570000       1.86540000
O        1.82300000       0.56440000       3.04560000
C        0.89120000      -0.57410000       1.10410000
C        0.35190000      -1.77500000       1.83140000
H        0.61490000       2.14410000       0.31750000
H       -0.56310000       1.75300000      -0.95780000
H       -1.04770000       1.68720000       0.74250000
H        1.34160000      -1.32090000      -1.00490000
H        3.46780000      -0.08380000      -0.54460000
H        2.44680000       1.28820000      -1.03310000
H       -0.20550000      -1.45620000       2.71710000
H       -0.31700000      -2.33800000       1.17740000
H        1.16200000      -2.42970000       2.16720000
