19
Properties=species:S:1:pos:R:3 gdb_53195=T pbc="F F F"
C        0.05220000       1.55750000      -0.08570000
C        0.04630000       0.10250000      -0.02590000
C        0.03860000      -1.10110000       0.01880000
C        0.03520000      -2.56230000       0.08450000
C        0.61120000      -3.11660000       1.38790000
C       -0.20110000      -4.00690000       1.95740000
C       -1.47830000      -4.16140000       1.20230000
C       -2.33410000      -2.90910000       1.13810000
C       -1.36450000      -3.20520000       0.02830000
H        0.80110000       1.92570000      -0.79600000
H       -0.92180000       1.94710000      -0.40230000
H        0.28060000       1.99690000       0.89190000
H        0.63230000      -2.94090000      -0.75930000
H        1.56170000      -2.77220000       1.77670000
H        0.00360000      -4.53800000       2.88040000
H       -1.95250000      -5.13280000       1.11720000
H       -3.38760000      -3.03210000       0.90890000
H       -2.10790000      -2.10420000       1.82940000
H       -1.76270000      -3.45980000      -0.94600000
