17
Properties=species:S:1:pos:R:3 gdb_51261=T pbc="F F F"
O        0.24590000      -0.16980000      -0.32830000
C        0.11420000       1.01210000      -0.15160000
C        1.26190000       2.00710000      -0.02440000
C        1.23580000       2.98640000      -1.16370000
C        0.92010000       4.28660000      -1.10490000
C        1.08510000       4.92880000      -2.44170000
O        2.44380000       4.86420000      -2.93730000
C        1.51690000       3.86710000      -3.36790000
C        1.59150000       2.56340000      -2.58340000
H       -0.89460000       1.48050000      -0.08630000
H        1.14200000       2.54010000       0.92690000
H        2.19850000       1.44060000       0.00070000
H        0.63450000       4.82600000      -0.20970000
H        0.52760000       5.81140000      -2.73900000
H        1.28840000       3.86650000      -4.43010000
H        2.59040000       2.11360000      -2.63600000
H        0.88830000       1.81730000      -2.97570000
