23
Properties=species:S:1:pos:R:3 gdb_77470=T pbc="F F F"
C        0.14050000       1.64830000      -0.36700000
C        0.27950000       0.14610000      -0.20640000
C        1.52140000      -0.67250000      -0.41960000
O        1.57150000      -1.74330000      -1.30250000
C        2.77330000       0.02210000       0.13270000
C        2.12840000      -0.02080000       1.56180000
C        2.05620000       1.23260000       2.42920000
C        0.85690000      -0.65250000       0.95970000
C        0.04670000      -1.70950000       1.65780000
H        1.07450000       2.18260000      -0.18160000
H       -0.17340000       1.89240000      -1.38870000
H       -0.61600000       2.05580000       0.31280000
H       -0.58340000      -0.39330000      -0.59810000
H        1.45390000      -1.40630000      -2.19710000
H        3.66050000      -0.60980000       0.05460000
H        3.01180000       1.00970000      -0.27760000
H        2.63930000      -0.80170000       2.13790000
H        1.57250000       2.07040000       1.92230000
H        1.49350000       1.03460000       3.34860000
H        3.06070000       1.55690000       2.72420000
H       -0.60940000      -1.27770000       2.42380000
H       -0.58570000      -2.25350000       0.94900000
H        0.69560000      -2.44140000       2.15310000
