17
Properties=species:S:1:pos:R:3 gdb_98499=T pbc="F F F"
C        0.21350000       1.36990000       0.10230000
O        0.36140000      -0.05590000       0.07860000
C        0.48130000      -0.59720000      -1.14140000
O        0.46940000       0.04110000      -2.16780000
C        0.63190000      -2.08990000      -1.09110000
C        0.02350000      -2.82240000      -2.29800000
C        1.49800000      -2.67100000      -2.22050000
C        0.63340000      -2.75560000       0.18000000
C        0.63970000      -3.35190000       1.22400000
H        1.08170000       1.85400000      -0.35150000
H       -0.68330000       1.67250000      -0.44370000
H        0.13080000       1.63910000       1.15500000
H       -0.41670000      -3.78880000      -2.08650000
H       -0.51260000      -2.19210000      -2.99680000
H        1.96480000      -1.93770000      -2.86650000
H        2.10050000      -3.53030000      -1.95410000
H        0.64310000      -3.86140000       2.15530000
