15
Properties=species:S:1:pos:R:3 gdb_60514=T pbc="F F F"
O       -0.14350000       1.45630000      -0.12400000
C       -0.13860000       0.06570000      -0.02120000
C        0.37050000      -0.61440000      -1.29230000
C        0.47160000       0.13070000      -2.55000000
O        1.63440000      -0.16800000      -1.76840000
C        0.73070000      -0.35280000       1.17190000
O        1.35930000       0.48510000       1.78500000
C        0.75230000      -1.75500000       1.51180000
C        0.73790000      -2.92860000       1.77850000
H        0.54080000       1.76670000       0.49160000
H       -1.15910000      -0.30790000       0.16590000
H        0.22100000      -1.69430000      -1.32040000
H        0.39580000      -0.40400000      -3.49530000
H        0.18180000       1.17730000      -2.55670000
H        0.73980000      -3.96260000       2.02720000
