21
Properties=species:S:1:pos:R:3 gdb_118673=T pbc="F F F"
C        0.03560000       1.36240000       0.06180000
O        0.03090000      -0.04550000       0.02000000
C        0.60570000      -0.56470000      -1.15450000
C        0.56200000      -2.09210000      -1.07290000
C        1.15340000      -2.71010000      -2.34170000
O        1.06860000      -4.10990000      -2.22920000
C        1.60570000      -4.78730000      -3.34130000
C        1.35680000      -2.55940000       0.13820000
O        0.91650000      -3.18360000       1.06290000
H        1.05850000       1.76890000       0.02140000
H       -0.53980000       1.79650000      -0.77090000
H       -0.42690000       1.66070000       1.00520000
H        0.05970000      -0.21700000      -2.04780000
H        1.64980000      -0.21740000      -1.26040000
H       -0.47170000      -2.42570000      -0.94700000
H        0.60480000      -2.35180000      -3.22920000
H        2.20580000      -2.39500000      -2.46550000
H        1.07500000      -4.52840000      -4.27100000
H        2.67430000      -4.56000000      -3.48100000
H        1.49260000      -5.85750000      -3.15530000
H        2.43440000      -2.26220000       0.09810000
