11
Properties=species:S:1:pos:R:3 gdb_130876=T pbc="F F F"
O       -0.05760000       0.00250000      -0.00070000
C       -0.01840000       1.20970000       0.00840000
C        1.23960000       1.97170000       0.00000000
C        2.51460000       1.48320000      -0.01820000
O        3.39680000       2.48050000      -0.02040000
N        2.73510000       3.69700000      -0.00350000
C        1.45460000       3.38750000       0.00840000
C        0.46230000       4.40960000       0.02750000
N       -0.38080000       5.20030000       0.04320000
H       -0.93870000       1.82730000       0.02330000
H        2.91080000       0.47990000      -0.03040000
