18
Properties=species:S:1:pos:R:3 gdb_133754=T pbc="F F F"
C        0.04110000       1.41250000      -0.12520000
O        0.02320000       0.01000000       0.01090000
C       -1.27110000      -0.57200000       0.00960000
C       -1.81180000      -0.74580000      -1.41290000
C       -1.14860000      -1.92060000       0.72380000
C       -0.91360000      -1.81620000       2.21910000
F       -1.86480000      -1.07060000       2.81490000
F       -0.95620000      -3.03630000       2.78520000
F        0.26750000      -1.27490000       2.53150000
H        1.08290000       1.72830000      -0.03230000
H       -0.33820000       1.74970000      -1.10110000
H       -0.54920000       1.90330000       0.66370000
H       -1.96030000       0.06700000       0.58360000
H       -1.15870000      -1.40710000      -1.99090000
H       -2.81910000      -1.17380000      -1.39840000
H       -1.86720000       0.21580000      -1.93000000
H       -2.06660000      -2.49960000       0.59040000
H       -0.32110000      -2.49070000       0.29190000
