21
Properties=species:S:1:pos:R:3 gdb_87409=T pbc="F F F"
C       -0.15180000       1.49950000       0.03550000
C       -0.03600000      -0.00850000       0.08200000
C        1.30630000      -0.68620000      -0.16510000
C        0.68330000      -0.70270000       1.19690000
C        1.32150000      -0.18090000       2.46540000
C        0.42490000      -0.64120000       3.63200000
C       -0.74360000      -1.42040000       3.02790000
C        0.28970000      -1.95580000       1.99450000
C        1.43700000      -1.58100000       3.02590000
H        0.73340000       1.97620000       0.46950000
H       -0.25110000       1.86190000      -0.99390000
H       -1.02350000       1.85100000       0.59910000
H       -0.89820000      -0.53870000      -0.31930000
H        1.32270000      -1.60410000      -0.74530000
H        2.17000000      -0.04660000      -0.32610000
H        2.02090000       0.63690000       2.58450000
H        0.47360000      -0.14700000       4.59440000
H       -1.08500000      -2.20740000       3.70650000
H       -1.60540000      -0.86950000       2.63310000
H        0.14920000      -2.91370000       1.49680000
H        2.27460000      -2.12310000       3.43940000
