15
Properties=species:S:1:pos:R:3 gdb_50450=T pbc="F F F"
N       -0.00720000       0.98840000       0.00430000
H       -0.19730000      -0.01510000       0.00280000
H        0.92910000       1.35270000      -0.00140000
C       -1.11990000       1.68650000       0.01440000
N       -1.32580000       2.98530000       0.01970000
C       -2.77010000       3.28260000       0.03100000
C       -3.41030000       1.91670000       0.03170000
C       -4.83880000       1.75770000       0.04160000
O       -5.45740000       0.70820000       0.04290000
C       -2.42280000       0.91460000       0.02160000
O       -2.35720000      -0.31920000       0.01760000
H       -0.61620000       3.70070000       0.01660000
H       -2.99910000       3.88670000       0.91970000
H       -3.01190000       3.89180000      -0.85090000
H       -5.39420000       2.73130000       0.04830000
