18
Properties=species:S:1:pos:R:3 gdb_23202=T pbc="F F F"
C       -0.28200000       1.35770000      -0.04900000
O        0.16080000       0.01380000       0.11050000
C        0.76590000      -0.49460000      -1.00730000
C       -0.03030000      -1.04780000      -2.18090000
C        0.89970000      -1.96430000      -1.43520000
C        2.34840000      -1.71470000      -1.90140000
C        2.18320000      -0.27230000      -1.42650000
N        2.94390000       0.72160000      -1.23460000
O        4.24530000       0.46000000      -1.71160000
H        0.56130000       2.02950000      -0.24690000
H       -1.00840000       1.44060000      -0.86910000
H       -0.76280000       1.64260000       0.88910000
H       -1.08250000      -1.17380000      -1.94520000
H        0.17890000      -0.75570000      -3.20680000
H        0.55380000      -2.84090000      -0.90460000
H        3.10710000      -2.23600000      -1.31110000
H        2.55360000      -1.86980000      -2.96470000
H        4.71160000       1.26930000      -1.47680000
