20
Properties=species:S:1:pos:R:3 gdb_17275=T pbc="F F F"
C       -0.08760000       1.44900000      -0.19760000
C        0.13230000      -0.02740000       0.03660000
N        1.52450000      -0.50280000       0.11760000
C        0.64850000      -0.62340000       1.29900000
C        1.03760000       0.16840000       2.52460000
N        1.94920000      -0.61410000       3.35600000
C        3.36480000      -0.51880000       3.00610000
C        2.83680000       0.14750000       4.22810000
H        0.65840000       2.05240000       0.32360000
H       -0.01340000       1.68000000      -1.26580000
H       -1.08300000       1.75480000       0.14300000
H       -0.56450000      -0.66300000      -0.51010000
H        1.62810000      -1.40170000      -0.34450000
H        0.28190000      -1.61980000       1.54140000
H        1.47850000       1.13190000       2.22100000
H        0.14350000       0.38560000       3.12320000
H        3.93240000      -1.44180000       3.08590000
H        3.63380000       0.11180000       2.16220000
H        2.76210000       1.23400000       4.21010000
H        3.01270000      -0.27830000       5.21200000
