19
Properties=species:S:1:pos:R:3 gdb_93398=T pbc="F F F"
C        0.04130000       1.52860000       0.00480000
C        0.05160000       0.02830000      -0.03560000
C        0.03470000      -0.65720000      -1.19110000
C        0.01790000      -2.13040000      -1.27270000
O        0.02250000      -2.71150000      -2.34040000
C       -0.04060000      -2.87650000       0.05520000
C        0.63320000      -2.09880000       1.18850000
C        0.05840000      -0.69000000       1.30810000
O        0.83730000      -0.00370000       2.28370000
H        0.93980000       1.90360000       0.50630000
H       -0.00700000       1.95730000      -0.99810000
H       -0.82090000       1.90140000       0.57540000
H        0.02150000      -0.14220000      -2.14800000
H       -1.10370000      -3.03340000       0.29050000
H        0.39890000      -3.86680000      -0.08640000
H        0.52210000      -2.61690000       2.14530000
H        1.70810000      -2.00330000       0.99600000
H       -0.98960000      -0.76030000       1.65240000
H        0.34310000       0.76130000       2.59230000
