18
Properties=species:S:1:pos:R:3 gdb_105930=T pbc="F F F"
O       -0.09340000       1.46540000       0.11090000
C       -0.08260000       0.05090000      -0.03160000
C       -1.47040000      -0.50400000       0.01740000
C       -2.26980000      -0.92180000       1.25450000
C       -2.02890000      -1.89430000       0.10580000
C       -3.28430000      -1.27600000      -0.54840000
C       -3.68140000      -0.51750000       0.76560000
C       -3.46850000       0.78770000      -0.02010000
N       -2.52500000       0.01720000      -0.91770000
H       -0.57210000       1.81030000      -0.65140000
H        0.40680000      -0.24220000      -0.97280000
H        0.51780000      -0.34750000       0.79330000
H       -1.85910000      -0.92670000       2.25500000
H       -1.55820000      -2.86680000       0.05880000
H       -3.96280000      -1.71240000      -1.27890000
H       -4.55050000      -0.74170000       1.38330000
H       -4.34500000       1.09560000      -0.59860000
H       -3.02150000       1.64710000       0.48750000
