18
Properties=species:S:1:pos:R:3 gdb_105323=T pbc="F F F"
C        0.05560000       1.35630000      -0.03410000
O        0.00600000      -0.05500000       0.11340000
C       -1.27410000      -0.61980000       0.01960000
C       -1.98350000      -0.64650000      -1.39700000
C       -1.96600000      -2.17620000      -1.33950000
C       -0.55410000      -2.66020000      -1.20490000
C       -1.26090000      -2.15160000       0.02030000
C       -2.17220000      -0.08420000       1.06070000
N       -2.86750000       0.34830000       1.87680000
H        1.10890000       1.63580000       0.02410000
H       -0.34700000       1.67670000      -1.00490000
H       -0.49820000       1.86670000       0.76440000
H       -2.97990000      -0.20420000      -1.37360000
H       -1.39980000      -0.19090000      -2.20240000
H       -2.77660000      -2.81750000      -1.65800000
H       -0.42140000      -3.73670000      -1.22400000
H        0.26850000      -2.09490000      -1.63220000
H       -1.42070000      -2.75710000       0.90230000
