14
Properties=species:S:1:pos:R:3 gdb_29616=T pbc="F F F"
N        0.31820000       1.37320000       0.24230000
C        0.09660000       0.00680000       0.07530000
C       -1.03410000      -0.73880000       0.23450000
O       -0.76260000      -2.07080000       0.04830000
C        0.55120000      -2.18310000      -0.24120000
C        1.12280000      -0.94870000      -0.23370000
O        2.42330000      -0.59490000      -0.51460000
C        3.40230000      -1.07930000       0.30650000
O        4.55470000      -0.86280000       0.10780000
H        1.10830000       1.70380000      -0.29640000
H       -0.49440000       1.94620000       0.06130000
H       -2.05420000      -0.49540000       0.47610000
H        0.92920000      -3.17070000      -0.44420000
H        2.98190000      -1.67600000       1.13530000
