14
Properties=species:S:1:pos:R:3 gdb_14291=T pbc="F F F"
O       -0.01160000       1.33050000       0.21870000
C       -0.02630000      -0.04890000       0.03680000
C       -1.38170000      -0.72100000      -0.01300000
C       -2.56140000       0.18630000      -0.28210000
C       -2.26580000       0.82680000      -1.64080000
O       -2.88470000       1.66420000      -2.22210000
O       -1.10860000       0.29060000      -2.15840000
C       -0.53100000      -0.62890000      -1.26160000
H        0.56430000       1.72280000      -0.44710000
H        0.76990000      -0.59970000       0.53690000
H       -1.52830000      -1.65780000       0.50920000
H       -3.50170000      -0.36860000      -0.34820000
H       -2.69070000       0.98410000       0.45240000
H       -0.05550000      -1.46360000      -1.76090000
