16
Properties=species:S:1:pos:R:3 gdb_71508=T pbc="F F F"
C        0.04540000       1.47960000      -0.10230000
C        0.00640000      -0.00860000       0.01660000
O        0.59030000      -0.82770000      -1.05450000
C        0.06380000      -1.80660000      -0.10090000
C        0.60470000      -0.98800000       1.09710000
N       -0.32540000      -1.16360000       2.19570000
C       -1.58770000      -1.05080000       1.61360000
O       -2.65440000      -0.98100000       2.17090000
C       -1.23870000      -0.98160000       0.13060000
H        1.07920000       1.82460000      -0.20050000
H       -0.51690000       1.81200000      -0.97980000
H       -0.39560000       1.94090000       0.78690000
H        0.16970000      -2.86630000      -0.33110000
H        1.66530000      -0.98340000       1.33660000
H       -0.16030000      -0.81310000       3.12700000
H       -2.03430000      -0.95930000      -0.60850000
