21
Properties=species:S:1:pos:R:3 gdb_121994=T pbc="F F F"
C        0.07360000       1.37530000       0.08050000
O        0.03740000      -0.02930000       0.00280000
C       -1.27420000      -0.54660000       0.04510000
C       -1.18880000      -2.06530000      -0.04870000
C       -2.56190000      -2.74190000      -0.04910000
O       -3.38470000      -2.28240000      -1.12070000
C       -2.44360000      -4.27750000      -0.06680000
C       -3.78660000      -4.96880000       0.05060000
O       -3.99880000      -5.92010000       0.75900000
H        1.12190000       1.67960000       0.03210000
H       -0.47260000       1.84570000      -0.75270000
H       -0.36030000       1.74440000       1.02360000
H       -1.77670000      -0.25090000       0.98310000
H       -1.88070000      -0.14650000      -0.78230000
H       -0.64590000      -2.33630000      -0.96510000
H       -0.59230000      -2.44280000       0.78930000
H       -3.10790000      -2.44050000       0.85440000
H       -2.91330000      -2.44940000      -1.94540000
H       -1.99340000      -4.57800000      -1.02600000
H       -1.79090000      -4.64340000       0.73130000
H       -4.58710000      -4.52560000      -0.57930000
