21
Properties=species:S:1:pos:R:3 gdb_83617=T pbc="F F F"
O       -0.03840000       1.40820000      -0.15470000
C        0.01250000       0.00600000       0.00850000
C        0.24920000      -0.54610000       1.44740000
C        0.92240000      -1.95030000       1.51220000
C       -0.47410000      -2.62570000       1.68880000
C       -1.14310000      -1.27160000       1.42560000
C       -2.43390000      -0.64710000       1.95700000
C       -2.52590000       0.19950000       0.64940000
C       -1.38760000      -0.65010000       0.00220000
H        0.84910000       1.75520000      -0.01940000
H        0.70130000      -0.44250000      -0.72460000
H        0.53180000       0.17830000       2.21520000
H        1.44920000      -2.22720000       0.59330000
H        1.60730000      -2.09300000       2.35080000
H       -0.72840000      -3.44560000       1.00970000
H       -0.63410000      -2.97250000       2.71510000
H       -3.24570000      -1.37940000       2.02980000
H       -2.37300000      -0.10960000       2.90880000
H       -3.48350000       0.14560000       0.12830000
H       -2.25210000       1.24800000       0.76820000
H       -1.67200000      -1.24040000      -0.87130000
