22
Properties=species:S:1:pos:R:3 gdb_118545=T pbc="F F F"
C       -0.16380000       1.55260000       0.37580000
C        0.01290000       0.03860000       0.24990000
C        0.62020000      -0.40350000      -1.09440000
C        0.83210000      -1.91620000      -1.15730000
O       -0.44010000      -2.53680000      -1.15030000
C       -0.37480000      -3.94050000      -1.25040000
N       -0.19970000       0.00140000      -2.23110000
C        0.16410000       0.96310000      -3.11720000
O        1.16650000       1.64460000      -3.04600000
H        0.78890000       2.07690000       0.24980000
H       -0.85150000       1.93470000      -0.38410000
H       -0.56940000       1.81600000       1.35740000
H        0.67250000      -0.32520000       1.04820000
H       -0.94700000      -0.47180000       0.38780000
H        1.58730000       0.08900000      -1.23370000
H        1.37970000      -2.18250000      -2.07570000
H        1.43200000      -2.25290000      -0.29630000
H       -1.40020000      -4.31790000      -1.24330000
H        0.11730000      -4.25960000      -2.18220000
H        0.17300000      -4.38220000      -0.40400000
H       -1.02110000      -0.55390000      -2.41580000
H       -0.57720000       1.06700000      -3.93510000
