14
Properties=species:S:1:pos:R:3 gdb_21210=T pbc="F F F"
C        0.10100000       1.38370000      -0.03690000
N       -0.13350000      -0.03540000       0.15770000
C        0.56880000      -0.70040000       1.12940000
N        1.22270000      -0.08560000       2.10320000
N        1.69170000      -1.16390000       2.83410000
C        1.30730000      -2.30260000       2.24590000
O        1.64290000      -3.49430000       2.75120000
N        0.59550000      -2.07560000       1.16510000
H        1.13740000       1.61790000      -0.32080000
H       -0.57340000       1.75020000      -0.81420000
H       -0.11580000       1.91780000       0.89160000
H       -0.26610000      -0.58690000      -0.67560000
H        2.24350000      -1.02630000       3.66180000
H        1.24920000      -4.15980000       2.17310000
