19
Properties=species:S:1:pos:R:3 gdb_71840=T pbc="F F F"
C       -0.01890000       1.46810000      -0.03570000
C       -0.07110000      -0.02350000      -0.03330000
O        0.78970000      -0.71610000      -0.90730000
C       -0.06540000      -1.93250000      -0.75380000
C        0.59920000      -2.75470000       0.31520000
C        0.46840000      -2.08650000       1.47270000
C       -0.37680000      -0.89090000       1.26680000
C       -1.14250000      -1.05860000      -0.03400000
C       -2.62850000      -1.05030000      -0.22150000
H        0.97880000       1.81370000       0.25570000
H       -0.23860000       1.86740000      -1.03140000
H       -0.74250000       1.88080000       0.67310000
H       -0.27160000      -2.37660000      -1.72710000
H        1.23180000      -3.61090000       0.12250000
H        0.96760000      -2.31700000       2.40620000
H       -0.83760000      -0.35360000       2.08830000
H       -3.08500000      -0.23140000       0.34440000
H       -2.90140000      -0.92010000      -1.27470000
H       -3.07790000      -1.98590000       0.13110000
