13
Properties=species:S:1:pos:R:3 gdb_9326=T pbc="F F F"
O       -0.01730000       1.43750000      -0.04940000
C       -0.00620000       0.02710000      -0.07320000
C       -1.39960000      -0.56420000       0.03790000
O       -2.11860000      -0.13590000      -1.15110000
C       -3.37820000      -0.55740000      -1.25480000
O       -3.97000000      -1.25870000      -0.48240000
C       -3.97930000      -0.03700000      -2.48980000
N       -4.49660000       0.34840000      -3.44750000
H       -0.50240000       1.73640000      -0.82610000
H        0.48580000      -0.36660000      -0.97550000
H        0.57680000      -0.30100000       0.79330000
H       -1.38550000      -1.65750000       0.07130000
H       -1.92730000      -0.18480000       0.91690000
