19
Properties=species:S:1:pos:R:3 gdb_88011=T pbc="F F F"
C       -0.03000000       1.46310000      -0.15560000
C        0.03850000      -0.03070000       0.02180000
O        1.35360000      -0.63170000       0.00450000
C        0.61560000      -0.66250000       1.20660000
C        1.07650000      -0.09490000       2.54760000
O        0.61370000      -1.29390000       3.21830000
C        0.26140000      -1.91000000       1.97480000
C       -0.85870000      -2.88420000       1.83480000
C        0.58550000      -3.32870000       1.64530000
H        0.72520000       1.96600000       0.45420000
H        0.13900000       1.73490000      -1.20240000
H       -1.01850000       1.83620000       0.13370000
H       -0.70210000      -0.60330000      -0.53960000
H        2.16150000       0.03580000       2.63230000
H        0.56180000       0.80170000       2.91060000
H       -1.35640000      -3.18720000       2.74980000
H       -1.50640000      -2.81460000       0.96660000
H        0.94100000      -3.54170000       0.64260000
H        1.03050000      -3.92770000       2.43220000
