16
Properties=species:S:1:pos:R:3 gdb_16280=T pbc="F F F"
C       -0.06450000       1.56780000       0.06860000
C        0.04360000       0.05440000      -0.01710000
C        1.15250000      -0.58570000      -0.93540000
C        1.72390000      -1.30200000       0.29020000
N        2.10700000      -0.25310000       1.24850000
C        0.68280000      -0.68670000       1.18020000
C        0.01920000      -1.23250000       2.31580000
N       -0.53890000      -1.66870000       3.23220000
H        0.89610000       2.00570000       0.35110000
H       -0.36470000       1.98680000      -0.89750000
H       -0.81280000       1.86710000       0.80990000
H       -0.92610000      -0.39640000      -0.24360000
H        0.73760000      -1.26400000      -1.68260000
H        1.84380000       0.11300000      -1.41160000
H        2.15270000      -2.29450000       0.34920000
H        2.52450000      -0.70530000       2.06200000
