21
Properties=species:S:1:pos:R:3 gdb_58150=T pbc="F F F"
C       -0.05020000       1.56130000      -0.02100000
C        0.01800000       0.02800000      -0.03530000
C        0.72480000      -0.46150000      -1.30600000
C        0.71060000      -0.53140000       1.24510000
C        0.05490000      -0.05020000       2.55890000
C        0.75170000      -1.99120000       1.22930000
C        0.76870000      -3.20230000       1.24140000
C        0.78640000      -4.56320000       1.25390000
C        0.80300000      -5.77080000       1.26480000
H        0.95150000       1.99880000       0.07100000
H       -0.48360000       1.92810000      -0.95670000
H       -0.66350000       1.94710000       0.79710000
H       -1.00800000      -0.36430000      -0.03920000
H        1.75380000      -0.08390000      -1.35020000
H        0.76540000      -1.55260000      -1.34940000
H        0.20330000      -0.10360000      -2.19930000
H        1.75040000      -0.16930000       1.23410000
H        0.53250000      -0.52480000       3.41960000
H        0.15060000       1.03200000       2.67150000
H       -1.00800000      -0.31030000       2.57740000
H        0.81650000      -6.83210000       1.27520000
