19
Properties=species:S:1:pos:R:3 gdb_58370=T pbc="F F F"
C        0.75980000      -0.35200000       1.31390000
C        0.10450000      -0.11910000      -0.04600000
O        0.86380000      -0.68320000      -1.10410000
C       -1.36540000      -0.62770000      -0.09670000
C       -2.07100000      -0.15670000      -1.40230000
C       -2.28720000       1.28370000      -1.43240000
C       -2.46260000       2.47310000      -1.42980000
C       -1.39780000      -2.08560000      -0.00480000
C       -1.38240000      -3.28830000       0.03070000
H        1.79480000      -0.00170000       1.28910000
H        0.22910000       0.18730000       2.10560000
H        0.75990000      -1.41700000       1.57040000
H        0.07540000       0.95460000      -0.25830000
H        0.86330000      -1.64050000      -0.97500000
H       -1.90560000      -0.20170000       0.75770000
H       -1.44620000      -0.46320000      -2.24800000
H       -3.02900000      -0.67780000      -1.50200000
H       -2.62150000       3.52280000      -1.44590000
H       -1.39700000      -4.34920000       0.08370000
