18
Properties=species:S:1:pos:R:3 gdb_95701=T pbc="F F F"
C        0.17520000       1.58820000       0.08180000
C       -0.02200000       0.07980000       0.04390000
C        0.47760000      -0.53200000      -1.26710000
N        0.15850000      -1.95290000      -1.40620000
C        0.82170000      -2.96840000      -0.75000000
O        0.98160000      -4.06950000      -1.20850000
O        1.30100000      -2.64440000       0.48720000
C        0.52360000      -1.81950000       1.35550000
O        0.68910000      -0.45620000       1.15750000
H        1.22980000       1.84300000      -0.06030000
H       -0.41150000       2.07610000      -0.70180000
H       -0.14170000       1.98140000       1.05050000
H       -1.09030000      -0.16820000       0.15220000
H       -0.00980000      -0.01710000      -2.09950000
H        1.55830000      -0.35290000      -1.34810000
H       -0.11170000      -2.25000000      -2.33190000
H       -0.53380000      -2.10930000       1.27000000
H        0.90520000      -2.03820000       2.35350000
