17
Properties=species:S:1:pos:R:3 gdb_65075=T pbc="F F F"
C        0.20260000       0.82170000       1.21720000
C       -0.00980000      -0.05050000      -0.00090000
C        0.68370000       0.23050000      -1.26720000
O        1.11560000      -0.83320000      -0.41250000
C       -1.31880000      -0.79930000      -0.05500000
C       -2.51990000      -0.17380000      -0.65730000
O       -1.81040000      -1.18710000      -1.34630000
C       -1.58880000      -1.85730000       0.98060000
O       -0.99060000      -1.98530000       2.01580000
H        1.17990000       1.30670000       1.15860000
H       -0.56870000       1.59710000       1.28070000
H        0.16220000       0.21700000       2.12530000
H        0.23830000      -0.08310000      -2.20750000
H        1.35240000       1.08920000      -1.31670000
H       -3.51430000      -0.44770000      -0.30660000
H       -2.42060000       0.83370000      -1.05820000
H       -2.42260000      -2.53240000       0.68490000
