19
Properties=species:S:1:pos:R:3 gdb_69333=T pbc="F F F"
C        0.07930000       1.56220000      -0.00810000
C       -0.08100000       0.08280000       0.11670000
C       -1.36710000      -0.75430000       0.01010000
C       -0.71490000      -1.81350000       0.99430000
C       -1.38940000      -1.82340000       2.37240000
C       -0.54380000      -3.15930000       0.47210000
C       -0.41260000      -4.28120000       0.05990000
C        0.55750000      -0.92270000       0.98320000
O        0.97860000      -0.76110000      -0.36840000
H        1.09400000       1.86080000       0.26780000
H       -0.10230000       1.88600000      -1.03930000
H       -0.63140000       2.08750000       0.63810000
H       -2.24880000      -0.28180000       0.45010000
H       -1.59650000      -1.11330000      -0.99450000
H       -2.39310000      -2.25260000       2.30710000
H       -0.81040000      -2.42060000       3.08320000
H       -1.47290000      -0.80480000       2.76610000
H       -0.28620000      -5.26630000      -0.31580000
H        1.30930000      -0.84250000       1.76210000
