19
Properties=species:S:1:pos:R:3 gdb_99717=T pbc="F F F"
C        0.34720000       1.49680000      -1.54180000
C       -0.06010000       0.70780000      -0.28660000
C       -1.34520000      -0.04970000      -0.47250000
C       -1.58140000      -1.33180000      -0.14840000
N       -2.73120000      -2.04390000      -0.52850000
N       -0.72450000      -2.15430000       0.60980000
H       -0.58140000      -3.05630000       0.16880000
H        0.16130000      -1.72000000       0.82770000
C       -2.03230000      -2.87960000       3.17870000
O       -3.05830000      -3.00510000       2.64140000
O       -1.03210000      -2.77110000       3.75920000
H        1.26930000       2.06360000      -1.37550000
H        0.50470000       0.82590000      -2.39220000
H       -0.43550000       2.20960000      -1.82410000
H        0.75800000       0.02330000      -0.02370000
H       -0.13610000       1.41160000       0.55640000
H       -2.16260000       0.50190000      -0.93170000
H       -3.40690000      -1.46140000      -1.00430000
H       -3.16230000      -2.51940000       0.25730000
