20
Properties=species:S:1:pos:R:3 gdb_102802=T pbc="F F F"
C        0.29080000       1.49170000      -0.13500000
C        0.11870000      -0.01390000       0.02290000
O        0.81010000      -0.49110000       1.19130000
C       -1.35430000      -0.48010000       0.03650000
C       -1.45950000      -2.01430000       0.08170000
O       -1.10710000      -2.52930000       1.35550000
N       -2.08420000       0.05200000       1.18400000
C       -2.92590000       1.11760000       1.09910000
O       -3.03230000       1.84800000       0.13600000
H        1.35440000       1.74370000      -0.16120000
H       -0.18340000       1.84710000      -1.05350000
H       -0.17520000       2.02940000       0.69730000
H        0.61310000      -0.52480000      -0.81190000
H        0.51080000       0.05180000       1.93070000
H       -1.83870000      -0.10300000      -0.87050000
H       -2.49520000      -2.31870000      -0.09970000
H       -0.83850000      -2.44500000      -0.71830000
H       -0.21240000      -2.19910000       1.53010000
H       -2.17150000      -0.58290000       1.96600000
H       -3.50630000       1.26060000       2.03210000
