20
Properties=species:S:1:pos:R:3 gdb_39506=T pbc="F F F"
C       -0.02840000       1.22750000      -0.03390000
C        1.20240000       2.13520000       0.10270000
C        1.90710000       2.14240000       1.45330000
N        1.26820000       1.47370000       2.59530000
C        2.55870000       0.96430000       2.09380000
C        2.64130000      -0.43160000       1.48190000
O        2.42980000      -0.45880000       0.07290000
C        1.13440000      -0.84490000      -0.31190000
O        0.12570000      -0.13640000       0.33180000
H       -0.82140000       1.59320000       0.62280000
H       -0.38890000       1.29130000      -1.07380000
H        1.93540000       1.91240000      -0.67780000
H        0.83820000       3.15230000      -0.09750000
H        2.40710000       3.08920000       1.65690000
H        1.40560000       2.00490000       3.45050000
H        3.43040000       1.20570000       2.70110000
H        3.65710000      -0.81190000       1.63760000
H        1.94120000      -1.10380000       1.99260000
H        1.10930000      -0.71430000      -1.40450000
H        0.94890000      -1.89810000      -0.05480000
