18
Properties=species:S:1:pos:R:3 gdb_67846=T pbc="F F F"
O       -0.07380000       1.36820000      -0.08220000
C        0.01560000      -0.03490000      -0.03740000
C       -1.25470000      -0.66480000      -0.52860000
C       -1.71590000      -1.57400000       0.33330000
C       -0.85000000      -1.73550000       1.56870000
C        0.29600000      -0.73910000       1.32030000
N        1.64880000      -1.24760000       0.84610000
C        1.44440000      -2.07480000      -0.35790000
C        1.37540000      -0.61220000      -0.51060000
H        0.76070000       1.73180000       0.23520000
H       -1.71270000      -0.39300000      -1.47250000
H       -2.61880000      -2.15870000       0.18720000
H       -1.40900000      -1.51210000       2.48570000
H       -0.47580000      -2.76120000       1.68190000
H        0.46750000      -0.05440000       2.15280000
H        2.35880000      -2.57030000      -0.67130000
H        0.54610000      -2.67430000      -0.47180000
H        2.12870000      -0.03050000      -1.03640000
