14
Properties=species:S:1:pos:R:3 gdb_29066=T pbc="F F F"
O        0.01730000       1.31570000       0.00770000
C       -0.04070000      -0.00280000       0.00140000
C       -1.26220000      -0.62650000       0.00520000
C       -1.50260000      -2.01210000      -0.00090000
C       -0.59230000      -3.03920000      -0.01110000
C        0.82170000      -2.93540000      -0.01750000
N        1.64930000      -1.92490000      -0.01710000
C        1.34470000      -0.59570000      -0.00990000
O        2.23510000       0.25960000      -0.01180000
H        1.00070000       1.47900000       0.00210000
H       -2.12330000       0.03450000       0.01340000
H       -2.55190000      -2.29730000       0.00310000
H       -0.98050000      -4.05280000      -0.01430000
H        1.33220000      -3.90230000      -0.02410000
