16
Properties=species:S:1:pos:R:3 gdb_71338=T pbc="F F F"
O       -0.02850000       1.38880000       0.16400000
C        0.07470000       0.01210000       0.09700000
C        0.83020000      -0.97630000       0.98040000
N        0.08730000      -1.91290000       0.03360000
C       -1.13310000      -0.95820000       0.03030000
C       -1.20320000      -1.00260000      -1.51240000
C       -1.81850000       0.15800000      -2.24430000
O       -2.56370000       0.02910000      -3.18450000
C        0.29490000      -0.93420000      -1.14120000
H        0.85110000       1.77380000       0.07640000
H        1.91910000      -1.03800000       0.88480000
H        0.52070000      -1.07650000       2.02510000
H       -1.93420000      -1.08190000       0.75990000
H       -1.53390000      -1.95400000      -1.93540000
H       -1.53900000       1.16150000      -1.86100000
H        1.16860000      -1.02320000      -1.78890000
