19
Properties=species:S:1:pos:R:3 gdb_102094=T pbc="F F F"
C       -0.08630000       1.27390000       0.38540000
O       -0.23630000      -0.09880000       0.07970000
C        0.53640000      -0.52120000      -1.02470000
C        2.00550000      -0.66820000      -0.60770000
O        2.93770000      -0.56680000      -1.36110000
C       -0.00220000      -1.86830000      -1.50790000
C       -1.50590000      -2.00630000      -1.53020000
C        0.83630000      -2.67870000      -2.40150000
O        0.72300000      -3.00770000      -1.01100000
H        0.94900000       1.53130000       0.65330000
H       -0.39090000       1.90810000      -0.46050000
H       -0.73190000       1.48350000       1.24070000
H        0.47500000       0.20810000      -1.84870000
H        2.12930000      -0.87680000       0.47650000
H       -1.95160000      -1.26600000      -2.20340000
H       -1.78180000      -3.00530000      -1.87580000
H       -1.91940000      -1.84620000      -0.53290000
H        0.34940000      -3.37520000      -3.08230000
H        1.81220000      -2.31480000      -2.71550000
