20
Properties=species:S:1:pos:R:3 gdb_124439=T pbc="F F F"
C       -0.01880000       1.54420000       0.01390000
C       -0.01540000      -0.00110000       0.01700000
C        0.75070000      -0.51480000       1.25690000
C       -1.46640000      -0.51170000       0.06960000
C        0.64680000      -0.51220000      -1.23960000
C        0.21930000      -1.30190000      -2.28490000
N        1.23550000      -1.46290000      -3.18000000
N        2.28020000      -0.81710000      -2.75570000
N        1.93330000      -0.24120000      -1.58560000
H        0.99710000       1.95270000      -0.00610000
H       -0.55350000       1.93410000      -0.85710000
H       -0.50920000       1.92390000       0.91610000
H        0.26930000      -0.15970000       2.17380000
H        0.77070000      -1.60830000       1.28120000
H        1.78690000      -0.16040000       1.26990000
H       -2.04300000      -0.15970000      -0.79100000
H       -1.50270000      -1.60520000       0.08150000
H       -1.95840000      -0.14800000       0.97680000
H       -0.74410000      -1.75690000      -2.44370000
H        2.61780000       0.31040000      -1.09400000
