16
Properties=species:S:1:pos:R:3 gdb_50275=T pbc="F F F"
O       -0.58000000       1.00300000       0.86940000
C        0.18440000       0.90900000      -0.05620000
C        1.45960000       1.71660000      -0.17720000
N        2.57990000       1.03560000      -0.89570000
C        2.73030000       2.19630000      -1.79180000
C        1.51520000       2.30410000      -2.63880000
C        1.46310000       2.86980000      -1.22040000
C        1.15020000       4.22140000      -0.92820000
C        0.88480000       5.36520000      -0.66150000
H       -0.00620000       0.22100000      -0.90880000
H        1.73510000       2.10280000       0.80770000
H        3.37840000       0.91900000      -0.28240000
H        3.69250000       2.62950000      -2.03520000
H        1.53200000       3.07920000      -3.39700000
H        0.96460000       1.40700000      -2.90270000
H        0.64620000       6.37300000      -0.42780000
