17
Properties=species:S:1:pos:R:3 gdb_73760=T pbc="F F F"
C        0.09110000       1.49790000       0.07020000
C       -0.00590000       0.01060000      -0.00580000
C       -1.12750000      -0.74770000       0.01840000
C       -2.56060000      -0.33510000       0.12520000
C       -0.78080000      -2.17680000      -0.08040000
O       -1.52800000      -3.12720000      -0.08880000
C        0.76530000      -2.24690000      -0.17500000
O        1.41860000      -3.24910000      -0.26850000
C        1.26370000      -0.80690000      -0.12510000
H        0.70330000       1.79640000       0.93090000
H        0.60070000       1.89240000      -0.81830000
H       -0.88180000       1.98450000       0.15400000
H       -3.12440000      -0.69980000      -0.74040000
H       -3.02210000      -0.79620000       1.00520000
H       -2.68870000       0.74670000       0.19240000
H        1.84050000      -0.56150000      -1.02620000
H        1.94300000      -0.65780000       0.72410000
