16
Properties=species:S:1:pos:R:3 gdb_28295=T pbc="F F F"
C        0.00150000       1.47040000       0.06330000
C        0.01410000      -0.02120000      -0.02130000
C       -0.09660000      -0.79360000      -1.15840000
N       -0.02920000      -2.10660000      -0.70780000
C       -0.05040000      -3.44400000      -1.08740000
C        0.08220000      -4.17460000       0.05290000
N        0.18470000      -3.30300000       1.13100000
C        0.11530000      -2.01950000       0.65530000
N        0.14790000      -0.79420000       1.12390000
H        0.92910000       1.84720000       0.50810000
H       -0.11050000       1.91970000      -0.92730000
H       -0.82220000       1.82200000       0.69440000
H       -0.21060000      -0.54140000      -2.19810000
H       -0.15500000      -3.76430000      -2.10880000
H        0.11170000      -5.24200000       0.18630000
H        0.29130000      -3.55360000       2.09640000
