16
Properties=species:S:1:pos:R:3 gdb_34327=T pbc="F F F"
N       -0.26690000      -1.23090000      -0.18310000
C       -0.18850000      -0.07980000      -0.10010000
C       -0.12640000       1.36720000      -0.00190000
C       -0.08960000       1.86910000       1.49680000
N        1.39550000       2.04040000       1.35350000
C        1.25900000       2.00500000      -0.02630000
N        1.67160000       2.59250000      -1.06530000
C        0.59540000       2.34950000      -2.06800000
C       -0.71240000       2.09280000      -1.23580000
H       -0.62670000       2.81350000       1.63060000
H       -0.37880000       1.14160000       2.25570000
H        1.89220000       2.80310000       1.79900000
H        0.50020000       3.22740000      -2.71150000
H        0.83980000       1.49360000      -2.70960000
H       -1.46900000       1.51390000      -1.76840000
H       -1.14860000       3.05050000      -0.93600000
