16
Properties=species:S:1:pos:R:3 gdb_49096=T pbc="F F F"
O       -0.23830000       0.44660000      -0.70750000
C        0.21700000       1.08070000       0.21600000
C        1.40190000       1.95550000       0.10340000
O        1.81920000       2.57780000       1.28940000
C        2.45740000       3.81170000       0.92260000
C        2.80780000       3.61240000      -0.54600000
N        3.68010000       2.36880000      -0.60930000
C        2.46250000       1.60920000      -0.95560000
C        1.59660000       2.82600000      -1.12000000
H       -0.22550000       1.05270000       1.23410000
H        1.77090000       4.65860000       1.07100000
H        3.34430000       3.93860000       1.54790000
H        3.18740000       4.48640000      -1.07330000
H        4.25120000       2.42980000      -1.44990000
H        2.46540000       0.65330000      -1.46520000
H        0.81650000       3.11310000      -1.81310000
