15
Properties=species:S:1:pos:R:3 gdb_3373=T pbc="F F F"
O        0.13460000       1.37220000      -0.07340000
C       -0.00700000      -0.01310000       0.00520000
C       -0.44870000      -0.73250000       1.25550000
C       -1.16940000       0.12300000       2.27960000
O       -2.09350000       0.92300000       1.53010000
C       -2.52860000       0.15530000       0.40010000
C       -1.34430000      -0.71120000       0.01710000
H       -0.57980000       1.76240000       0.44990000
H        0.77760000      -0.49340000      -0.57040000
H        0.05970000      -1.62900000       1.59150000
H       -1.69750000      -0.50730000       3.01100000
H       -0.52070000       0.81730000       2.82340000
H       -3.39870000      -0.46690000       0.65840000
H       -2.83030000       0.87210000      -0.37050000
H       -1.51860000      -1.59160000      -0.59100000
