18
Properties=species:S:1:pos:R:3 gdb_128486=T pbc="F F F"
C        0.22570000       1.27090000       0.43390000
O       -0.20930000       0.30140000      -0.51430000
C       -1.26890000      -0.45500000      -0.16880000
C       -1.89660000      -0.84370000       1.00250000
C       -1.62190000      -0.55700000       2.44560000
N       -2.92850000      -1.66340000       0.63990000
N       -2.96780000      -1.80430000      -0.65160000
N       -1.95660000      -1.06280000      -1.16460000
C       -1.71320000      -1.00230000      -2.58870000
H        1.02260000       1.83300000      -0.05470000
H       -0.59120000       1.94990000       0.70260000
H        0.61910000       0.79800000       1.33930000
H       -1.63450000       0.51230000       2.67980000
H       -2.40180000      -1.03940000       3.03920000
H       -0.65680000      -0.95790000       2.77530000
H       -2.51830000      -1.55450000      -3.07300000
H       -1.71350000       0.03510000      -2.93330000
H       -0.75110000      -1.45750000      -2.84050000
