16
Properties=species:S:1:pos:R:3 gdb_123660=T pbc="F F F"
C       -0.02720000       1.44230000       0.12810000
C        1.30630000       0.72470000      -0.01360000
N        2.06900000       0.33280000       1.16570000
C        1.21580000      -0.45740000       1.94630000
C        1.10900000      -1.07500000       3.17550000
C       -0.14570000      -1.73810000       3.09020000
N       -0.77310000      -1.54430000       1.93040000
N        0.09750000      -0.76330000       1.24920000
C        0.01200000      -0.06390000       0.00490000
H       -0.30650000       1.86110000       1.08850000
H       -0.36360000       2.00040000      -0.73880000
H        1.88510000       0.85540000      -0.91980000
H        2.53960000       1.08500000       1.65120000
H        1.80940000      -1.07370000       3.99310000
H       -0.60680000      -2.36310000       3.84190000
H       -0.39790000      -0.59860000      -0.84200000
