22
Properties=species:S:1:pos:R:3 gdb_57373=T pbc="F F F"
C       -0.25960000       1.48250000       0.01950000
C       -0.02060000      -0.03900000      -0.03900000
C        0.81660000      -0.43640000       1.19700000
C       -1.38950000      -0.75160000      -0.00040000
C        0.73020000      -0.46530000      -1.31800000
C        0.45900000       0.18080000      -2.64790000
N        1.73670000       0.40440000      -1.98340000
C        1.15590000      -1.89900000      -1.46850000
O        0.79270000      -2.83480000      -0.80070000
H        0.67320000       2.05520000       0.06970000
H       -0.85270000       1.85440000      -0.82150000
H       -0.81800000       1.71790000       0.93070000
H        0.31210000      -0.10950000       2.11210000
H        0.95650000      -1.51660000       1.25200000
H        1.80350000       0.03930000       1.17270000
H       -2.00870000      -0.45740000      -0.85500000
H       -1.26840000      -1.83540000      -0.01780000
H       -1.92950000      -0.47900000       0.91260000
H        0.50930000      -0.41060000      -3.55900000
H       -0.27920000       0.97580000      -2.67120000
H        1.74180000       1.31650000      -1.53620000
H        1.87160000      -2.02900000      -2.31060000
