17
Properties=species:S:1:pos:R:3 gdb_83296=T pbc="F F F"
C       -0.25830000       1.55980000       0.02460000
C        0.01240000       0.05990000      -0.03050000
C        0.93450000      -0.47400000      -1.14920000
O        2.15930000       0.25860000      -1.15730000
C        2.92570000      -0.28970000      -0.07070000
C        1.92800000      -1.30810000       0.52770000
O        1.28240000      -1.76450000      -0.67140000
C        0.81330000      -0.46950000       1.17620000
O        0.64150000      -0.23540000       2.34120000
H        0.67450000       2.12200000      -0.06690000
H       -0.92440000       1.87120000      -0.78540000
H       -0.72920000       1.81760000       0.97700000
H       -0.92980000      -0.50110000      -0.07950000
H        0.52740000      -0.52640000      -2.15820000
H        3.81910000      -0.78870000      -0.46100000
H        3.21780000       0.49920000       0.62900000
H        2.33730000      -2.12620000       1.11440000
