20
Properties=species:S:1:pos:R:3 gdb_85301=T pbc="F F F"
C       -0.41110000       1.53700000       0.14150000
C        0.09420000       0.10730000       0.00240000
O        0.95620000       0.05750000      -1.16420000
C        2.19330000      -0.52100000      -1.08610000
N        2.94240000      -0.63630000      -2.10020000
C        2.60460000      -0.98990000       0.28000000
C        1.43200000      -1.80910000       0.89770000
C        0.80780000      -0.43150000       1.24190000
C        2.25490000       0.12800000       1.30680000
H        0.40030000       2.22060000       0.40770000
H       -0.84740000       1.87560000      -0.80170000
H       -1.18090000       1.59220000       0.91770000
H       -0.75550000      -0.55180000      -0.22460000
H        2.47320000      -0.25630000      -2.92560000
H        3.60730000      -1.40980000       0.24200000
H        0.87230000      -2.48230000       0.24230000
H        1.75360000      -2.34880000       1.79130000
H        0.15940000      -0.34370000       2.11680000
H        2.71820000      -0.06600000       2.27650000
H        2.43460000       1.16600000       1.01700000
