14
Properties=species:S:1:pos:R:3 gdb_53924=T pbc="F F F"
C        0.27360000       1.55300000       0.35060000
C        0.05740000       0.04750000       0.05860000
C        0.61440000      -0.76910000       1.14970000
N        1.07180000      -1.39970000       2.00220000
C       -1.37400000      -0.25380000      -0.08180000
N       -2.49270000      -0.49270000      -0.24570000
C        0.85850000      -0.33900000      -1.25780000
N        0.30720000      -1.32580000      -1.99350000
O        1.89680000       0.22400000      -1.50550000
H        1.34530000       1.74900000       0.35580000
H       -0.19460000       2.14730000      -0.43650000
H       -0.16450000       1.81730000       1.31390000
H       -0.59400000      -1.72200000      -1.78470000
H        0.78850000      -1.61730000      -2.82930000
