19
Properties=species:S:1:pos:R:3 gdb_90128=T pbc="F F F"
O        0.20620000       1.26770000      -0.44340000
C        0.04500000      -0.06080000      -0.04190000
C        0.27460000      -0.36890000       1.49750000
C       -1.23870000      -0.45500000       1.61470000
C       -2.39030000      -1.15690000       2.32040000
C       -3.50170000      -0.63740000       1.32460000
C       -2.61300000       0.27690000       0.42380000
O       -1.79380000       0.92160000       1.45050000
C       -1.42970000      -0.62960000       0.08710000
H       -0.36560000       1.78000000       0.14470000
H        0.66490000      -0.66760000      -0.70540000
H        0.76460000      -1.33520000       1.65030000
H        0.77880000       0.40100000       2.08620000
H       -2.28740000      -2.24480000       2.31910000
H       -2.55140000      -0.81470000       3.34470000
H       -3.99010000      -1.44350000       0.77060000
H       -4.26690000      -0.04540000       1.83060000
H       -3.11190000       0.96720000      -0.25870000
H       -1.60540000      -1.60410000      -0.37280000
