23
Properties=species:S:1:pos:R:3 gdb_107046=T pbc="F F F"
C        0.01340000       1.57650000       0.02980000
C        0.05440000       0.04700000       0.03670000
C        0.75710000      -0.56950000      -1.19800000
C        1.25060000      -1.96000000      -0.74350000
C        1.50800000      -1.81990000       0.75510000
C        1.56140000      -3.06650000       1.59030000
O        2.70520000      -3.82190000       1.20240000
C        2.29910000      -0.60690000       1.18530000
C        0.78880000      -0.57210000       1.22340000
H        1.02630000       1.99420000       0.03450000
H       -0.50180000       1.95510000      -0.85980000
H       -0.51120000       1.96620000       0.90870000
H       -0.97970000      -0.32530000       0.06740000
H        0.09540000      -0.62100000      -2.06720000
H        1.60510000       0.05980000      -1.49180000
H        0.46620000      -2.71310000      -0.89570000
H        2.13090000      -2.30020000      -1.29700000
H        1.60790000      -2.79760000       2.65830000
H        0.63940000      -3.65310000       1.43950000
H        2.67850000      -4.66320000       1.66790000
H        2.81450000      -0.67380000       2.13760000
H        2.83400000      -0.02640000       0.44060000
H        0.30710000      -0.54010000       2.19630000
