21
Properties=species:S:1:pos:R:3 gdb_117193=T pbc="F F F"
C        0.12760000       1.35670000       0.68080000
C       -0.03410000       0.04160000      -0.08480000
C       -1.34870000      -0.66830000       0.23860000
C       -1.55060000      -1.94980000      -0.55120000
O       -0.80030000      -2.30000000      -1.43580000
C       -2.76800000      -2.79540000      -0.22650000
C       -3.31240000      -3.62540000      -1.36400000
C       -2.95180000      -3.23560000       1.17470000
O       -3.73260000      -2.17580000       0.64000000
H        1.07540000       1.84380000       0.43210000
H       -0.67940000       2.05870000       0.44270000
H        0.11220000       1.19450000       1.76460000
H        0.01610000       0.22180000      -1.16360000
H        0.80190000      -0.63050000       0.13990000
H       -1.43150000      -0.88230000       1.31200000
H       -2.21280000      -0.02240000       0.02780000
H       -2.52600000      -4.26730000      -1.76660000
H       -4.14880000      -4.23920000      -1.02240000
H       -3.66250000      -2.98040000      -2.17570000
H       -3.48110000      -4.17050000       1.35500000
H       -2.23300000      -2.95420000       1.94280000
