22
Properties=species:S:1:pos:R:3 gdb_59086=T pbc="F F F"
C        0.44980000       0.40790000      -1.38520000
C        0.06150000       0.11480000       0.06710000
C       -0.03110000       1.40080000       0.89000000
N       -1.26620000      -0.52200000       0.05210000
C       -1.45270000      -1.93490000      -0.14670000
C       -0.33560000      -2.93950000      -0.32160000
C       -1.77460000      -1.28810000       1.19940000
C       -0.97510000      -1.63040000       2.40120000
O        0.23010000      -1.74420000       2.46760000
H        1.42260000       0.90740000      -1.42280000
H        0.52090000      -0.51070000      -1.97510000
H       -0.29430000       1.05710000      -1.85750000
H        0.82080000      -0.52940000       0.52370000
H       -0.27640000       1.18750000       1.93430000
H        0.92620000       1.93050000       0.87450000
H       -0.80260000       2.06250000       0.48340000
H       -2.33740000      -2.16180000      -0.74320000
H        0.47250000      -2.79360000       0.39510000
H       -0.73170000      -3.95180000      -0.19100000
H        0.07340000      -2.87690000      -1.33550000
H       -2.82120000      -1.09560000       1.43100000
H       -1.60360000      -1.78710000       3.30720000
