21
Properties=species:S:1:pos:R:3 gdb_104434=T pbc="F F F"
O       -0.06580000       1.43710000      -0.16640000
C        0.01300000       0.02740000       0.03560000
C       -1.42820000      -0.50090000       0.05160000
O       -2.05610000      -0.09180000      -1.17080000
C       -1.43620000      -2.03310000       0.06630000
C       -2.83270000      -2.57390000       0.38920000
C       -3.28280000      -2.11900000       1.78370000
C       -2.99330000      -0.65910000       2.01240000
C       -2.17890000       0.06210000       1.24400000
H        0.80780000       1.76760000      -0.39080000
H        0.55770000      -0.45610000      -0.78790000
H        0.51850000      -0.21070000       0.98290000
H       -1.84500000       0.84540000      -1.26970000
H       -1.09770000      -2.38670000      -0.91270000
H       -0.71710000      -2.38920000       0.81610000
H       -3.53300000      -2.19270000      -0.36180000
H       -2.84570000      -3.66650000       0.32070000
H       -4.35440000      -2.30960000       1.92170000
H       -2.77900000      -2.71590000       2.56030000
H       -3.48880000      -0.18590000       2.85800000
H       -2.02080000       1.11800000       1.44570000
