18
Properties=species:S:1:pos:R:3 gdb_1089=T pbc="F F F"
C       -0.06330000       1.56270000       0.06940000
C       -0.00350000       0.02450000       0.05290000
C        0.70620000      -0.49860000       1.31480000
C       -1.41970000      -0.55920000      -0.03820000
N        0.71950000      -0.43440000      -1.15340000
C        2.00600000      -0.14520000      -1.46940000
O        2.77020000       0.53610000      -0.81430000
H        0.94430000       1.98070000       0.08720000
H       -0.58210000       1.93850000      -0.81810000
H       -0.60500000       1.90850000       0.95550000
H        0.17090000      -0.16960000       2.21120000
H        0.73630000      -1.59280000       1.31550000
H        1.72930000      -0.12200000       1.35760000
H       -1.93690000      -0.20400000      -0.93650000
H       -1.39540000      -1.65450000      -0.06020000
H       -2.00940000      -0.25460000       0.83030000
H        0.21390000      -1.01600000      -1.80290000
H        2.30150000      -0.61560000      -2.43040000
