21
Properties=species:S:1:pos:R:3 gdb_63635=T pbc="F F F"
C       -0.12150000       1.61660000      -0.10960000
C        0.00820000       0.11820000       0.05310000
O       -1.15880000      -0.58210000      -0.31410000
C        1.32870000      -0.57730000      -0.19770000
C        0.72650000      -0.54850000       1.19520000
C        1.39930000       0.14400000       2.34690000
O        2.18210000       1.27040000       2.02730000
C        0.73460000       0.13400000       3.70220000
C        1.97220000      -0.70400000       3.44810000
H        0.82200000       2.12630000       0.09230000
H       -0.40620000       1.85690000      -1.14190000
H       -0.89980000       2.01830000       0.54840000
H       -1.27370000      -0.47840000      -1.26590000
H        1.31340000      -1.51760000      -0.73760000
H        2.19990000       0.04700000      -0.36460000
H        0.23840000      -1.47220000       1.49250000
H        1.60920000       2.04330000       2.05160000
H        0.85400000       1.01810000       4.31960000
H       -0.22260000      -0.36580000       3.80410000
H        1.86750000      -1.78120000       3.38130000
H        2.90270000      -0.35790000       3.88220000
