22
Properties=species:S:1:pos:R:3 gdb_77507=T pbc="F F F"
C       -0.06060000       1.49540000      -0.07180000
N       -0.06060000       0.03270000       0.00550000
C       -1.16670000      -0.71070000       0.74130000
C       -2.60770000      -0.63170000       0.32840000
C       -0.19900000      -1.92770000       0.69720000
C        0.64540000      -0.69630000       1.14320000
C        2.12430000      -0.59460000       1.37660000
C       -0.51240000      -0.39160000       2.13390000
O       -0.55270000       0.89200000       2.70650000
H       -0.30040000       2.03380000       0.84870000
H        0.93050000       1.81350000      -0.41550000
H       -0.77380000       1.78880000      -0.85120000
H       -2.72000000      -0.88100000      -0.73160000
H       -3.21810000      -1.32950000       0.91150000
H       -3.00640000       0.37730000       0.48330000
H       -0.35190000      -2.72850000       1.42420000
H        0.02570000      -2.28750000      -0.30550000
H        2.67530000      -0.83510000       0.46200000
H        2.40060000       0.41720000       1.69080000
H        2.43950000      -1.28840000       2.16270000
H       -0.67780000      -1.15810000       2.90750000
H       -1.35640000       0.96150000       3.23090000
