16
Properties=species:S:1:pos:R:3 gdb_28174=T pbc="F F F"
N        0.15630000       1.33360000       0.15790000
C       -0.04170000      -0.03770000       0.04450000
C       -1.16030000      -0.82630000       0.00540000
C       -0.65710000      -2.17360000       0.00410000
C        0.69590000      -2.07850000       0.03450000
C        1.37910000      -3.39950000       0.00350000
C        0.15650000      -4.31420000      -0.04040000
C       -0.98910000      -3.60000000      -0.04000000
O        1.10920000      -0.77990000       0.06280000
H        0.96110000       1.65390000      -0.36750000
H       -0.66570000       1.85960000      -0.10600000
H       -2.17990000      -0.47620000      -0.02210000
H        2.02210000      -3.54770000      -0.87460000
H        2.00090000      -3.60220000       0.88590000
H        0.24130000      -5.39210000      -0.06270000
H       -1.98970000      -4.01260000      -0.06640000
