19
Properties=species:S:1:pos:R:3 gdb_119210=T pbc="F F F"
C       -0.22850000       1.47010000      -0.06070000
N       -0.18160000       0.01820000      -0.16830000
C        0.91250000      -0.45330000      -1.00010000
C        0.90340000      -1.96860000      -1.10580000
O        0.03010000      -2.57350000      -2.06240000
C        1.43610000      -2.72310000      -2.26810000
C        2.05240000      -2.08950000      -3.48770000
C        0.93570000      -2.64240000       0.18700000
N        0.97970000      -3.13550000       1.23180000
H        0.71170000       1.92860000       0.29550000
H       -0.45730000       1.90340000      -1.04110000
H       -1.03030000       1.75700000       0.62470000
H       -0.10700000      -0.39060000       0.75810000
H        0.78170000      -0.03980000      -2.00390000
H        1.91270000      -0.13580000      -0.64390000
H        1.79840000      -3.72870000      -2.04840000
H        1.65550000      -1.09230000      -3.68190000
H        3.13900000      -2.02370000      -3.37070000
H        1.84740000      -2.71260000      -4.36410000
