13
Properties=species:S:1:pos:R:3 gdb_48533=T pbc="F F F"
O       -0.20800000       0.01780000       0.07680000
C       -0.04380000       1.20420000      -0.06840000
C        1.25530000       1.87130000       0.02830000
C        1.75650000       3.19280000       0.53680000
O        2.88270000       2.63470000       1.20890000
C        2.73290000       1.46230000       0.35350000
C        3.07310000       2.01990000      -1.05320000
O        3.80360000       1.69640000      -1.93920000
C        1.89480000       2.95950000      -0.94610000
H       -0.88930000       1.89480000      -0.28240000
H        1.23690000       4.03530000       0.97490000
H        3.11360000       0.53420000       0.76640000
H        1.38740000       3.53450000      -1.70810000
