17
Properties=species:S:1:pos:R:3 gdb_56734=T pbc="F F F"
O       -0.38620000       1.21230000       0.18540000
C        0.07210000      -0.12490000      -0.01400000
C        0.93770000      -0.20920000      -1.19450000
C        1.62170000      -0.22620000      -2.18250000
C        0.79890000      -0.57120000       1.25270000
C        1.81870000       0.35190000       1.89800000
C        0.51150000       0.13170000       2.57810000
C        1.05090000      -2.02670000       1.35390000
O        0.67830000      -2.84920000       0.55320000
H       -0.59850000       1.57590000      -0.67990000
H       -0.77980000      -0.80430000      -0.16360000
H        2.23010000      -0.26410000      -3.05240000
H        2.71290000      -0.09870000       2.31550000
H        1.96960000       1.29690000       1.39040000
H       -0.22560000       0.92250000       2.53640000
H        0.48290000      -0.48720000       3.46870000
H        1.61970000      -2.32340000       2.26640000
