14
Properties=species:S:1:pos:R:3 gdb_25110=T pbc="F F F"
N        0.04000000       0.84970000      -1.25440000
C        0.01970000       0.09190000      -0.23880000
O        1.24010000      -0.26560000       0.32940000
C        1.49510000      -1.05250000       1.40540000
N        0.78730000      -1.70080000       2.22480000
C       -0.61150000      -1.81750000       2.28000000
N       -1.15280000      -2.52930000       3.19700000
C       -1.52690000      -1.16460000       1.33660000
C       -1.25600000      -0.37310000       0.29310000
H        1.00060000       1.08890000      -1.50600000
H        2.57770000      -1.07910000       1.52020000
H       -0.41150000      -2.92410000       3.78170000
H       -2.56650000      -1.38430000       1.55610000
H       -2.07970000       0.01860000      -0.29290000
