15
Properties=species:S:1:pos:R:3 gdb_128640=T pbc="F F F"
C       -0.02090000       1.38820000       0.01780000
O       -0.04200000      -0.03980000       0.02090000
C       -1.24300000      -0.62920000       0.01270000
N       -1.19650000      -1.97460000       0.01560000
C       -2.36580000      -2.56720000      -0.00410000
C       -3.56700000      -1.82070000      -0.01380000
N       -4.80820000      -2.42510000      -0.09800000
N       -3.52490000      -0.49330000       0.00450000
N       -2.33770000       0.11760000       0.00770000
H        1.03510000       1.66060000       0.02120000
H       -0.51570000       1.78670000      -0.87240000
H       -0.52250000       1.79080000       0.90230000
H       -2.38120000      -3.65640000      -0.01040000
H       -4.89700000      -3.32240000       0.35460000
H       -5.56900000      -1.79420000       0.11470000
