15
Properties=species:S:1:pos:R:3 gdb_57231=T pbc="F F F"
C        0.00030000       1.54280000       0.06150000
C       -0.00530000       0.00400000       0.00120000
O        0.70350000      -0.42580000       1.16550000
C       -1.38670000      -0.51200000       0.01290000
C       -2.50770000      -0.94280000       0.04650000
C        0.67310000      -0.46790000      -1.21900000
C        1.24950000      -0.86730000      -2.20510000
C        1.89670000      -1.31140000      -3.31630000
C        2.47150000      -1.70700000      -4.30150000
H        1.03410000       1.89410000       0.06850000
H       -0.52200000       1.96030000      -0.80070000
H       -0.49800000       1.86060000       0.97970000
H        0.69750000      -1.39020000       1.17270000
H       -3.49900000      -1.32390000       0.07160000
H        2.97650000      -2.05200000      -5.16950000
