11
Properties=species:S:1:pos:R:3 gdb_3286=T pbc="F F F"
O       -0.11320000       0.17180000       0.40850000
C        0.00160000       1.29200000       0.04170000
O       -1.00250000       2.15960000      -0.36360000
C       -0.05750000       3.23170000      -0.64360000
C        0.24640000       4.08470000       0.59280000
O        1.28740000       3.16070000       1.01340000
C        1.10760000       2.35010000      -0.16370000
H       -0.20800000       3.66700000      -1.62760000
H        0.66900000       5.07090000       0.37200000
H       -0.56750000       4.17070000       1.31860000
H        2.03250000       2.08540000      -0.67540000
