21
Properties=species:S:1:pos:R:3 gdb_103810=T pbc="F F F"
C       -0.45820000       1.67140000       0.30980000
C        0.17960000       0.34410000      -0.12020000
C        0.86750000      -0.37930000       1.02830000
C        2.09730000       0.30450000       1.59940000
N       -0.04410000      -1.05380000       1.95500000
C        0.83960000      -1.88460000       1.12000000
C        0.18830000      -2.77480000       0.09240000
N        0.95770000      -3.85190000      -0.26090000
O       -0.90820000      -2.57820000      -0.39270000
H        0.28280000       2.40290000       0.64950000
H       -1.00300000       2.12210000      -0.52500000
H       -1.16970000       1.50340000       1.12420000
H       -0.59100000      -0.31360000      -0.52490000
H        0.91420000       0.51990000      -0.91720000
H        1.84030000       1.28220000       2.02040000
H        2.55390000      -0.29300000       2.39550000
H        2.85350000       0.46880000       0.82390000
H        0.31520000      -1.02780000       2.90660000
H        1.70820000      -2.32820000       1.60620000
H        1.90740000      -3.95990000       0.04870000
H        0.63120000      -4.43070000      -1.01730000
