23
Properties=species:S:1:pos:R:3 gdb_120450=T pbc="F F F"
C        0.18600000       1.38750000      -0.02170000
O        0.18580000      -0.01850000      -0.03680000
C        0.59880000      -0.58350000       1.18970000
C        0.58650000      -2.09110000       1.05720000
C        1.65630000      -2.75330000       0.14620000
C        1.86930000      -3.84490000       1.22390000
C        1.13060000      -5.14910000       0.94220000
O        3.24560000      -4.08070000       1.46040000
C        1.13680000      -2.92050000       2.24980000
H        1.19020000       1.79570000       0.17650000
H       -0.14410000       1.72750000      -1.00650000
H       -0.50070000       1.78970000       0.74090000
H        1.61440000      -0.23530000       1.45050000
H       -0.07200000      -0.26220000       2.00700000
H       -0.42210000      -2.41120000       0.77850000
H        1.35320000      -3.08140000      -0.85040000
H        2.55230000      -2.13220000       0.06180000
H        1.58840000      -5.66820000       0.09430000
H        1.16730000      -5.81300000       1.81570000
H        0.07580000      -4.97100000       0.71040000
H        3.32220000      -4.78960000       2.10850000
H        1.87230000      -2.35550000       2.83040000
H        0.41510000      -3.38060000       2.93060000
