16
Properties=species:S:1:pos:R:3 gdb_20967=T pbc="F F F"
C       -0.00260000       1.37920000       0.19920000
N        0.01170000      -0.00140000      -0.25520000
C        1.26540000      -0.71930000      -0.08840000
C       -1.13090000      -0.75140000      -0.06880000
C       -1.35140000      -2.11760000       0.00500000
N       -2.68930000      -2.33790000       0.13720000
N       -3.32350000      -1.21050000       0.16270000
N       -2.38030000      -0.22990000       0.03990000
H        0.93250000       1.85890000      -0.09860000
H       -0.81400000       1.93410000      -0.28320000
H       -0.11160000       1.47820000       1.29130000
H        1.45440000      -1.02120000       0.95400000
H        1.25960000      -1.61720000      -0.71160000
H        2.08780000      -0.08240000      -0.42250000
H       -0.64390000      -2.92800000      -0.02700000
H       -2.67270000       0.73200000       0.03950000
