20
Properties=species:S:1:pos:R:3 gdb_61223=T pbc="F F F"
C        0.51170000      -0.69510000      -1.24170000
C       -0.02550000       0.07400000      -0.05060000
C        0.92830000       0.89380000       0.74840000
N       -0.06610000       1.54280000      -0.12780000
C       -1.23460000      -0.60060000       0.60330000
O       -0.87670000      -1.89240000       1.07690000
C       -1.91550000       0.24730000       1.69730000
C       -3.18160000      -0.32060000       2.13900000
C       -4.23190000      -0.78690000       2.49070000
H        1.43240000      -0.24260000      -1.62370000
H        0.71950000      -1.73190000      -0.96620000
H       -0.22480000      -0.70870000      -2.05400000
H        0.77940000       1.07000000       1.81020000
H        1.97120000       0.89060000       0.44180000
H        0.37710000       1.85800000      -0.98740000
H       -1.97640000      -0.79280000      -0.18100000
H       -0.22770000      -1.77520000       1.78030000
H       -1.23870000       0.34000000       2.55810000
H       -2.06040000       1.26090000       1.30920000
H       -5.15770000      -1.19970000       2.80550000
