17
Properties=species:S:1:pos:R:3 gdb_90795=T pbc="F F F"
C        0.02450000       1.49000000      -0.03660000
N       -0.02970000       0.03730000       0.03880000
C       -1.38900000      -0.52780000       0.09790000
C       -1.21930000      -1.80330000       0.90760000
C        0.19110000      -2.00970000       1.22410000
C        0.69220000      -0.55640000       1.16730000
C       -0.11140000      -0.38970000       2.47900000
O       -0.18430000       0.40600000       3.36330000
N       -0.79480000      -1.67210000       2.35820000
H        1.06790000       1.81290000      -0.10460000
H       -0.48970000       1.82230000      -0.94360000
H       -0.43790000       1.99420000       0.82860000
H       -2.11080000       0.14880000       0.58370000
H       -1.76350000      -0.74830000      -0.90900000
H       -1.90470000      -2.63020000       0.76350000
H        0.76100000      -2.92740000       1.23440000
H        1.75500000      -0.31530000       1.16330000
