18
Properties=species:S:1:pos:R:3 gdb_46958=T pbc="F F F"
N       -0.30130000       1.38720000      -0.41170000
C       -0.12310000       0.14430000      -0.27830000
O        1.05770000      -0.50210000      -0.50060000
C        0.95470000      -1.89300000      -0.16320000
C       -0.54880000      -2.24050000      -0.11720000
C       -0.93140000      -3.12130000       1.09460000
C       -1.31480000      -2.10210000       2.14320000
C       -1.45840000      -0.88000000       1.63340000
C       -1.18500000      -0.85190000       0.14280000
H        0.56900000       1.84690000      -0.68560000
H        1.50890000      -2.45930000      -0.91590000
H        1.42860000      -2.05130000       0.81330000
H       -0.86510000      -2.67230000      -1.06870000
H       -1.77650000      -3.78280000       0.86280000
H       -0.10970000      -3.77580000       1.41130000
H       -1.47940000      -2.36760000       3.18160000
H       -1.75280000       0.01240000       2.17210000
H       -2.10010000      -0.65190000      -0.42350000
