17
Properties=species:S:1:pos:R:3 gdb_30618=T pbc="F F F"
C       -0.04550000       1.53980000       0.06650000
C        0.02350000       0.01840000      -0.03970000
C        0.74180000      -0.46450000      -1.29580000
O        1.19770000       0.31280000      -2.11150000
C        0.86820000      -1.92220000      -1.49440000
C        0.42550000      -2.94200000      -0.69780000
O        0.74040000      -4.13940000      -1.23310000
C        1.40300000      -3.89080000      -2.40470000
C        1.51040000      -2.55930000      -2.61510000
H        0.95670000       1.97510000       0.08170000
H       -0.57060000       1.96680000      -0.79140000
H       -0.56860000       1.83920000       0.97900000
H        0.53530000      -0.41470000       0.83030000
H       -0.98260000      -0.42270000      -0.03560000
H       -0.10610000      -2.97300000       0.23920000
H        1.72020000      -4.76410000      -2.94930000
H        1.97650000      -2.05320000      -3.44430000
