20
Properties=species:S:1:pos:R:3 gdb_96043=T pbc="F F F"
C       -0.61860000       1.37010000      -0.00940000
C        0.06160000       0.00590000      -0.06860000
C        1.36580000      -0.05920000      -0.88800000
C        2.05480000      -1.31580000      -0.33250000
O        1.45420000      -1.57560000       0.95420000
C        0.55050000      -0.56060000       1.26730000
O        1.18790000       0.50190000       1.98630000
C        1.59790000       0.21240000       3.23850000
N        2.25260000       1.06550000       3.89920000
H        0.05450000       2.12390000       0.40500000
H       -0.92440000       1.68930000      -1.01060000
H       -1.51600000       1.33870000       0.61710000
H       -0.64030000      -0.73700000      -0.46820000
H        1.18790000      -0.12160000      -1.96380000
H        1.96790000       0.83270000      -0.69200000
H        1.88270000      -2.19780000      -0.95970000
H        3.13450000      -1.18920000      -0.20640000
H       -0.23320000      -0.99600000       1.89810000
H        1.29930000      -0.78750000       3.57820000
H        2.46320000       0.69570000       4.82420000
