14
Properties=species:S:1:pos:R:3 gdb_50610=T pbc="F F F"
O       -0.15570000      -0.00300000       0.00180000
C       -0.05480000       1.19780000       0.01010000
N        1.13480000       1.89480000       0.00310000
C        1.24980000       3.36290000       0.01300000
C        2.79370000       3.55560000      -0.00290000
N        3.39100000       2.21500000      -0.01960000
C        2.43570000       1.36890000      -0.01530000
C        2.68610000      -0.04520000      -0.02860000
N        2.97860000      -1.16250000      -0.04010000
H       -0.92090000       1.88610000       0.02490000
H        0.76240000       3.79350000      -0.86600000
H        0.78240000       3.78000000       0.90920000
H        3.13570000       4.10940000      -0.88260000
H        3.15540000       4.09640000       0.87690000
