21
Properties=species:S:1:pos:R:3 gdb_121616=T pbc="F F F"
C        0.25750000       1.72190000      -0.31100000
C       -0.01230000       0.32600000       0.25520000
C        0.28820000      -0.78390000      -0.77320000
C        0.81760000       0.08060000       1.50540000
O        1.82880000       0.66400000       1.80290000
O        0.28320000      -0.92580000       2.24370000
C        0.99830000      -1.31230000       3.43870000
C        0.40440000      -0.59200000       4.63980000
O       -0.96500000      -0.89720000       4.82160000
H        1.31440000       1.83580000      -0.56500000
H       -0.33850000       1.88520000      -1.21380000
H        0.00600000       2.50240000       0.41240000
H       -1.06510000       0.23610000       0.54680000
H        1.33910000      -0.75270000      -1.07930000
H        0.07790000      -1.77360000      -0.36040000
H       -0.32780000      -0.64440000      -1.66620000
H        0.84720000      -2.39090000       3.52640000
H        2.05880000      -1.08030000       3.32110000
H        0.92500000      -0.91800000       5.54670000
H        0.57120000       0.49040000       4.52940000
H       -1.40320000      -0.71340000       3.98340000
