18
Properties=species:S:1:pos:R:3 gdb_34488=T pbc="F F F"
N       -0.09720000      -1.09960000       0.24880000
C       -0.08290000       0.05280000       0.12110000
C       -0.03940000       1.46010000      -0.03680000
C       -1.07870000       2.29650000      -0.14230000
C       -2.50780000       2.52260000       0.27200000
C       -1.97820000       3.88450000       0.86710000
C       -0.69390000       3.74060000      -0.03420000
C        0.76950000       3.69390000       0.45080000
C        1.26000000       2.28010000      -0.00040000
H       -3.17970000       2.69630000      -0.57430000
H       -2.96160000       1.79140000       0.94340000
H       -2.60300000       4.76470000       0.70460000
H       -1.74020000       3.79110000       1.92910000
H       -0.81770000       4.30490000      -0.96600000
H        1.39340000       4.49850000       0.05350000
H        0.80490000       3.75590000       1.54390000
H        1.98880000       1.84890000       0.69140000
H        1.73940000       2.31150000      -0.98690000
