21
Properties=species:S:1:pos:R:3 gdb_88510=T pbc="F F F"
C       -0.95250000       0.88330000       0.20350000
C       -0.02660000      -0.30500000       0.06400000
C        1.37790000      -0.10010000      -0.43050000
C        1.14830000      -0.57310000       0.99390000
C        1.52050000       0.27210000       2.18580000
C        0.46770000       0.77080000       3.17890000
C        1.35860000      -0.34170000       3.58650000
C        2.73330000       1.13500000       2.08140000
O        3.09550000       1.91470000       2.93240000
H       -0.42950000       1.76030000       0.59550000
H       -1.36900000       1.15480000      -0.77280000
H       -1.79420000       0.67040000       0.87150000
H       -0.52160000      -1.20620000      -0.28920000
H        1.80900000      -0.79460000      -1.14290000
H        1.69190000       0.92910000      -0.57570000
H        1.35280000      -1.63130000       1.13670000
H        0.65660000       1.74940000       3.60570000
H       -0.56380000       0.54470000       2.94240000
H        0.95480000      -1.34810000       3.61880000
H        2.15120000      -0.12850000       4.29440000
H        3.31910000       0.99970000       1.14730000
