21
Properties=species:S:1:pos:R:3 gdb_79519=T pbc="F F F"
C       -0.17610000       1.56040000      -0.00830000
C        0.02790000       0.04510000      -0.01440000
C        0.94560000      -0.47350000      -1.12380000
C        1.36750000      -1.93790000      -0.78170000
C        2.73260000      -1.69030000      -1.46560000
C        2.44060000      -0.39940000      -0.66390000
C        1.92040000      -1.27760000       0.52070000
C        0.80300000      -0.52620000       1.22800000
O        1.39590000       0.45410000       2.07010000
H        0.77420000       2.09150000       0.08900000
H       -0.65820000       1.88650000      -0.93580000
H       -0.82180000       1.87820000       0.81890000
H       -0.95280000      -0.44220000      -0.09090000
H        0.70190000      -0.22440000      -2.15970000
H        0.73580000      -2.82710000      -0.84350000
H        3.57280000      -2.30200000      -1.12380000
H        2.72760000      -1.60680000      -2.55660000
H        3.06160000       0.49300000      -0.58270000
H        2.63830000      -1.82030000       1.13810000
H        0.16780000      -1.19830000       1.82360000
H        0.69290000       0.92210000       2.53080000
