22
Properties=species:S:1:pos:R:3 gdb_57893=T pbc="F F F"
C       -0.92860000      -0.04670000      -0.29380000
C        0.52380000      -0.17810000       0.21670000
C        1.54220000       0.01680000      -0.90840000
C        0.71640000       0.85480000       1.32340000
O        1.18740000       1.95180000       1.11010000
C        0.24170000       0.53440000       2.71870000
N       -0.34000000      -0.78590000       3.00940000
C        0.93760000      -0.43610000       3.63020000
C        2.16430000      -1.23590000       3.26350000
H       -1.10280000       0.95050000      -0.71130000
H       -1.11620000      -0.78350000      -1.08070000
H       -1.64990000      -0.21970000       0.50950000
H        0.61620000      -1.17690000       0.65320000
H        1.47920000       1.03080000      -1.31160000
H        2.56600000      -0.13080000      -0.55100000
H        1.35820000      -0.69530000      -1.71880000
H       -0.16600000       1.41360000       3.21370000
H       -1.10980000      -0.70140000       3.66690000
H        0.90380000      -0.14390000       4.67970000
H        2.17000000      -1.51300000       2.20800000
H        3.07160000      -0.66040000       3.47400000
H        2.20500000      -2.15820000       3.85280000
