17
Properties=species:S:1:pos:R:3 gdb_28217=T pbc="F F F"
C        0.03100000       1.43100000       0.09380000
C        0.00690000      -0.04570000      -0.06130000
N       -0.06590000      -0.74440000      -1.15630000
C       -0.03740000      -2.05530000      -0.70640000
C        0.04780000      -2.07540000       0.63000000
C        0.03220000      -3.43340000       1.22980000
N       -0.14780000      -4.26640000       0.00120000
C       -0.11610000      -3.44320000      -1.25120000
O        0.07460000      -0.79780000       1.09270000
H        0.95970000       1.76490000       0.56890000
H       -0.04760000       1.88880000      -0.89250000
H       -0.80040000       1.77710000       0.71660000
H        0.95870000      -3.68270000       1.76810000
H       -0.79810000      -3.58810000       1.93350000
H        0.56300000      -4.98310000      -0.03580000
H       -1.02120000      -3.61760000      -1.84820000
H        0.74220000      -3.70250000      -1.88690000
