16
Properties=species:S:1:pos:R:3 gdb_77146=T pbc="F F F"
N       -0.08870000       1.28100000       0.23340000
C        0.00850000      -0.01800000      -0.16040000
O        0.99670000      -0.51210000      -0.67140000
C       -1.27280000      -0.84310000      -0.00860000
N       -0.98100000      -2.27230000       0.22340000
C       -1.30240000      -2.18960000       1.57730000
N       -1.06160000      -2.81100000       2.65050000
C       -2.00610000      -0.84900000       1.38380000
O       -1.71700000       0.15110000       2.32540000
H        0.76580000       1.81780000       0.20390000
H       -0.74820000       1.49490000       0.96970000
H       -1.91290000      -0.65540000      -0.87730000
H       -0.12010000      -2.67230000      -0.13380000
H       -0.45800000      -3.62210000       2.50850000
H       -3.09030000      -0.93520000       1.26040000
H       -1.20290000      -0.26870000       3.02780000
