21
Properties=species:S:1:pos:R:3 gdb_73628=T pbc="F F F"
C       -0.07510000       1.58890000      -0.05650000
C        0.00300000       0.06060000      -0.00730000
C       -1.38970000      -0.60160000       0.13640000
C       -1.10890000      -1.80080000       1.04520000
O       -0.16070000      -1.31710000       1.98650000
C        0.74610000      -0.46300000       1.27630000
C        1.95010000      -1.20110000       0.75080000
C        1.98470000      -1.23130000      -0.57920000
C        0.82740000      -0.50150000      -1.20950000
H        0.92580000       2.03260000      -0.10220000
H       -0.62870000       1.92900000      -0.93890000
H       -0.57970000       1.98690000       0.83050000
H       -2.07940000       0.08330000       0.64090000
H       -1.83220000      -0.87870000      -0.82430000
H       -1.98150000      -2.15440000       1.60110000
H       -0.70070000      -2.64680000       0.46890000
H        1.01560000       0.33660000       1.97610000
H        2.66920000      -1.66540000       1.41630000
H        2.75020000      -1.72000000      -1.17400000
H        0.23450000      -1.17080000      -1.84650000
H        1.17070000       0.30800000      -1.86680000
