19
Properties=species:S:1:pos:R:3 gdb_114171=T pbc="F F F"
C        0.11340000       1.50400000      -0.03160000
C        0.02180000      -0.01460000       0.14620000
C       -1.40220000      -0.54470000       0.01650000
C       -2.10110000      -0.51350000      -1.39590000
C       -2.26240000      -2.03030000      -1.30840000
O       -0.95840000      -2.61110000      -1.13220000
C       -1.58070000      -2.07520000       0.02140000
C       -3.34440000      -2.90700000      -1.78600000
O       -4.34840000      -2.50360000      -2.32140000
H        1.14780000       1.84910000       0.05720000
H       -0.25630000       1.81300000      -1.01520000
H       -0.47970000       2.03010000       0.72470000
H        0.65000000      -0.51970000      -0.59600000
H        0.41760000      -0.29410000       1.13150000
H       -2.05630000      -0.08870000       0.76710000
H       -3.05740000       0.01070000      -1.39680000
H       -1.49140000      -0.17260000      -2.23560000
H       -1.73590000      -2.74860000       0.85840000
H       -3.15970000      -3.98590000      -1.59120000
