23
Properties=species:S:1:pos:R:3 gdb_118526=T pbc="F F F"
C       -0.05300000       1.24260000      -1.19030000
C       -0.06320000      -0.13770000      -0.52640000
C       -1.48660000      -0.66920000      -0.33990000
N       -1.53810000      -2.06420000       0.09920000
C       -0.88020000      -2.35750000       1.37860000
C       -1.43010000      -1.64390000       2.62480000
C       -2.88820000      -2.59710000      -0.00230000
C       -2.92070000      -4.06070000       0.12150000
N       -2.96530000      -5.21020000       0.22670000
H        0.96830000       1.61830000      -1.30040000
H       -0.50480000       1.20860000      -2.18770000
H       -0.61320000       1.97430000      -0.59750000
H        0.50070000      -0.85580000      -1.13280000
H        0.44750000      -0.07270000       0.44100000
H       -2.04370000       0.00930000       0.33460000
H       -2.00150000      -0.62050000      -1.30800000
H       -0.93520000      -3.44100000       1.52690000
H        0.18200000      -2.12340000       1.26460000
H       -0.87150000      -1.96770000       3.50840000
H       -1.33300000      -0.55630000       2.55310000
H       -2.48460000      -1.87750000       2.80340000
H       -3.60120000      -2.18470000       0.73660000
H       -3.29070000      -2.34010000      -0.98900000
