20
Properties=species:S:1:pos:R:3 gdb_98200=T pbc="F F F"
C       -0.34710000       1.36440000      -0.32740000
O       -0.32820000      -0.06440000      -0.45310000
C        0.85830000      -0.59690000      -0.81710000
O        1.84520000       0.06680000      -1.01530000
C        0.77410000      -2.11610000      -1.01870000
C        2.07450000      -2.77180000      -0.54280000
N       -0.37280000      -2.76970000      -0.37330000
C        0.58770000      -2.34840000      -2.54970000
O        0.41970000      -3.71580000      -2.82320000
H        0.36840000       1.69120000       0.43080000
H       -0.08970000       1.83650000      -1.27870000
H       -1.36380000       1.62390000      -0.03280000
H        2.15340000      -2.74140000       0.54950000
H        2.09620000      -3.81230000      -0.87200000
H        2.93340000      -2.24250000      -0.95730000
H       -0.18460000      -2.92570000       0.61160000
H       -1.18700000      -2.16520000      -0.42200000
H       -0.27990000      -1.75730000      -2.89130000
H        1.46990000      -1.99480000      -3.09070000
H       -0.18030000      -4.02770000      -2.12720000
