19
Properties=species:S:1:pos:R:3 gdb_96837=T pbc="F F F"
C        0.13320000       1.46350000       0.18200000
N        0.02610000       0.01490000       0.09930000
C        0.45030000      -0.56270000      -0.94330000
C        0.39150000      -2.06010000      -1.19280000
C        1.28720000      -2.30440000      -2.42470000
C        0.76060000      -3.29590000      -3.46170000
C        1.49560000      -0.90550000      -3.01710000
O        1.98200000      -0.61980000      -4.08380000
N        1.03340000       0.00640000      -2.08010000
H        1.14250000       1.83480000      -0.05590000
H       -0.57500000       1.96380000      -0.49490000
H       -0.10510000       1.78600000       1.19830000
H        0.69590000      -2.60970000      -0.30100000
H       -0.64690000      -2.33850000      -1.40610000
H        2.28310000      -2.63140000      -2.09770000
H       -0.24910000      -3.02350000      -3.78690000
H        1.40900000      -3.29890000      -4.34120000
H        0.72240000      -4.30830000      -3.04980000
H        1.12130000       0.99850000      -2.23720000
