17
Properties=species:S:1:pos:R:3 gdb_14905=T pbc="F F F"
N       -0.02690000      -1.17920000      -0.06010000
C       -0.01220000      -0.02400000      -0.02410000
C        0.00460000       1.44230000       0.02570000
C       -0.77320000       1.96120000       1.25810000
C       -0.54390000       3.46560000       1.43320000
C        0.94140000       3.77410000       1.66930000
C        1.83550000       2.99670000       0.74030000
C        1.43130000       1.96620000       0.00110000
H       -0.51130000       1.78430000      -0.88460000
H       -1.83660000       1.73280000       1.14290000
H       -0.42290000       1.42450000       2.14700000
H       -0.88620000       3.99040000       0.53220000
H       -1.14790000       3.84210000       2.26470000
H        1.13020000       4.84790000       1.54900000
H        1.21720000       3.54480000       2.70910000
H        2.87470000       3.31090000       0.67900000
H        2.12190000       1.45290000      -0.66080000
