21
Properties=species:S:1:pos:R:3 gdb_90354=T pbc="F F F"
O        0.17240000       1.43320000       0.01420000
C        0.06780000       0.02780000       0.01720000
C        0.22050000      -0.61680000       1.44230000
C       -1.29450000      -0.61440000       1.49120000
C       -2.25010000      -0.29370000       2.35430000
C       -3.65220000       0.00070000       1.86850000
C       -3.83180000      -0.19410000       0.34620000
C       -2.61300000       0.27570000      -0.47560000
C       -1.40510000      -0.53040000      -0.01730000
H       -0.35940000       1.76960000       0.74540000
H        0.74450000      -0.32500000      -0.76390000
H        0.64830000      -1.62410000       1.38520000
H        0.77590000      -0.03570000       2.18410000
H       -2.04410000      -0.17440000       3.41630000
H       -4.38260000      -0.61890000       2.40560000
H       -3.90090000       1.03700000       2.14350000
H       -3.99630000      -1.25930000       0.13970000
H       -4.73750000       0.32750000       0.01920000
H       -2.80650000       0.15680000      -1.54690000
H       -2.42870000       1.34360000      -0.30470000
H       -1.39490000      -1.52540000      -0.48170000
