16
Properties=species:S:1:pos:R:3 gdb_32487=T pbc="F F F"
C       -0.02990000       1.40760000       0.03840000
O       -0.01190000      -0.00650000       0.02570000
C        0.59710000      -0.57750000      -1.04100000
C        1.21070000       0.03630000      -2.13180000
N        1.67810000      -0.95460000      -2.94330000
C        1.38420000      -2.18150000      -2.40810000
C        1.78340000      -3.38820000      -3.09600000
O        2.38420000      -3.39150000      -4.15600000
C        0.70490000      -1.97290000      -1.21250000
H        0.98830000       1.82050000       0.04880000
H       -0.56660000       1.80860000      -0.83260000
H       -0.54900000       1.70670000       0.95010000
H        1.34170000       1.07640000      -2.37700000
H        2.17150000      -0.85440000      -3.81530000
H        1.50040000      -4.33110000      -2.58400000
H        0.33130000      -2.73170000      -0.54310000
