17
Properties=species:S:1:pos:R:3 gdb_93467=T pbc="F F F"
N        0.07880000       1.41640000       0.27730000
C       -0.00260000      -0.00470000      -0.01940000
C       -1.45380000      -0.48430000      -0.04490000
N       -1.47830000      -1.89440000      -0.39310000
C       -0.83860000      -2.35630000      -1.52110000
N       -1.20270000      -3.44180000      -2.08470000
N        0.22950000      -1.54100000      -1.93660000
C        0.70600000      -0.39840000      -1.32470000
O        1.62620000       0.23770000      -1.79300000
H        1.05120000       1.70030000       0.18400000
H       -0.41140000       1.93550000      -0.44860000
H        0.51380000      -0.55480000       0.77950000
H       -1.89790000      -0.35550000       0.94400000
H       -2.03290000       0.13580000      -0.75110000
H       -2.32480000      -2.40970000      -0.20430000
H       -0.58460000      -3.69880000      -2.85050000
H        0.71580000      -1.81400000      -2.77960000
