21
Properties=species:S:1:pos:R:3 gdb_53333=T pbc="F F F"
C        0.05800000       1.49900000      -0.06230000
C        0.03650000       0.04380000      -0.00810000
C        0.02410000      -1.16070000       0.03140000
C       -0.00180000      -2.61490000       0.08330000
C        0.45200000      -3.23500000       1.46400000
C       -0.81460000      -4.04330000       1.79890000
C       -1.14830000      -4.70700000       0.43100000
C       -1.42650000      -3.23560000       0.01400000
C       -1.94770000      -3.02980000       1.46360000
H        0.76560000       1.85990000      -0.81730000
H       -0.92830000       1.90410000      -0.31560000
H        0.35410000       1.93160000       0.90010000
H        0.61450000      -3.01140000      -0.73190000
H        1.34000000      -3.86420000       1.35630000
H        0.66690000      -2.46020000       2.20320000
H       -0.80660000      -4.61260000       2.72900000
H       -0.35380000      -5.25260000      -0.08880000
H       -2.05870000      -5.30970000       0.46480000
H       -2.02110000      -2.97720000      -0.86190000
H       -2.94470000      -3.45120000       1.61080000
H       -1.89090000      -2.02490000       1.89030000
