19
Properties=species:S:1:pos:R:3 gdb_110697=T pbc="F F F"
C        0.67140000       0.04120000      -1.71050000
C        1.36230000      -1.10100000      -0.96500000
N        2.73110000      -1.35890000      -1.46870000
C        3.48880000      -1.46830000      -0.45380000
N        2.93430000      -1.36360000       0.85700000
C        2.45850000       0.03290000       1.16570000
C        3.04790000       1.25950000       0.50780000
O        4.20690000       1.70660000       1.19600000
C        1.53550000      -0.95970000       0.55370000
H        1.20500000       0.98730000      -1.59230000
H        0.62240000      -0.18820000      -2.77810000
H       -0.34940000       0.17650000      -1.33970000
H        0.77950000      -2.01470000      -1.14740000
H        4.55380000      -1.67170000      -0.53490000
H        2.35660000       0.17010000       2.24050000
H        3.24920000       1.09380000      -0.55740000
H        2.32550000       2.07940000       0.58410000
H        4.86770000       1.00820000       1.14310000
H        0.77310000      -1.39600000       1.19190000
