16
Properties=species:S:1:pos:R:3 gdb_56070=T pbc="F F F"
N       -0.30440000       1.49550000       0.09760000
C        0.03820000       0.19460000      -0.25430000
O        0.97720000      -0.08340000      -0.95540000
N       -0.80720000      -0.74070000       0.36780000
C       -0.82740000      -2.11620000       0.18910000
N       -0.22970000      -2.73830000      -0.73310000
C       -0.35560000      -4.17550000      -0.75470000
C        1.02000000      -4.83420000      -0.73800000
O        1.22290000      -5.94720000      -0.32930000
H        0.20170000       2.18210000      -0.44170000
H       -1.28200000       1.71280000       0.22230000
H       -1.35960000      -0.40040000       1.13830000
H       -1.45700000      -2.60660000       0.94700000
H       -0.96240000      -4.60630000       0.05860000
H       -0.82160000      -4.47810000      -1.70620000
H        1.82730000      -4.19460000      -1.15470000
