19
Properties=species:S:1:pos:R:3 gdb_72795=T pbc="F F F"
C        0.14980000       1.61200000       0.03520000
C       -0.04790000       0.09320000       0.05000000
C        0.75360000      -0.59660000      -1.10550000
O        1.80310000      -0.96490000      -0.13900000
C        0.95420000      -0.65220000       0.89150000
N        0.91370000      -1.08980000       2.06710000
C       -0.39110000      -0.73690000       2.67010000
C       -1.52970000      -1.02210000       1.66270000
N       -1.41180000      -0.28690000       0.38220000
H        1.17930000       1.87950000      -0.21790000
H       -0.51210000       2.06310000      -0.71390000
H       -0.08870000       2.04770000       1.00970000
H        0.27460000      -1.49330000      -1.50480000
H        1.15150000       0.03530000      -1.90230000
H       -0.53030000      -1.35250000       3.56380000
H       -0.41450000       0.31200000       2.99790000
H       -1.52450000      -2.10030000       1.45960000
H       -2.50210000      -0.78330000       2.10380000
H       -2.00100000       0.53520000       0.40350000
