19
Properties=species:S:1:pos:R:3 gdb_86331=T pbc="F F F"
C       -0.01070000       1.29000000      -0.34220000
N       -0.06590000      -0.09580000       0.07210000
C       -1.30280000      -0.63660000       0.66630000
C       -0.42530000      -1.54970000       1.55370000
O       -0.21590000      -2.85360000       1.03760000
C        0.70440000      -0.51620000       1.26180000
C        2.16000000      -0.87460000       0.97110000
N        2.54010000      -2.13190000       1.32730000
O        2.91100000      -0.04890000       0.48520000
H        1.02060000       1.53990000      -0.59980000
H       -0.64240000       1.44020000      -1.22400000
H       -0.35230000       1.98270000       0.45040000
H       -1.86220000       0.10070000       1.26690000
H       -1.99000000      -1.12640000      -0.03300000
H       -0.71760000      -1.67790000       2.59550000
H       -0.07220000      -2.76270000       0.08710000
H        0.71490000       0.25700000       2.05120000
H        1.83090000      -2.83560000       1.47920000
H        3.47340000      -2.41900000       1.07480000
