20
Properties=species:S:1:pos:R:3 gdb_26359=T pbc="F F F"
C        0.42530000       0.93880000      -0.52010000
N        0.03350000      -0.23590000       0.25230000
C        0.45460000      -0.14490000       1.63980000
C       -1.29290000      -0.66460000       0.07350000
C       -2.25880000      -0.81960000       1.02760000
O       -3.39100000      -1.34980000       0.48060000
C       -3.14050000      -1.51870000      -0.84080000
C       -1.88050000      -1.12900000      -1.16790000
C       -1.23150000      -1.23180000      -2.51330000
H        1.51100000       1.06480000      -0.45930000
H        0.15800000       0.81260000      -1.56970000
H       -0.05050000       1.86550000      -0.15400000
H       -0.05370000       0.66430000       2.19580000
H        0.25150000      -1.09120000       2.14840000
H        1.53090000       0.04810000       1.67900000
H       -2.29030000      -0.63980000       2.08790000
H       -3.94420000      -1.94080000      -1.42280000
H       -1.80190000      -1.89530000      -3.16950000
H       -1.15460000      -0.26230000      -3.02040000
H       -0.21580000      -1.63270000      -2.42670000
