21
Properties=species:S:1:pos:R:3 gdb_94897=T pbc="F F F"
C       -0.05610000       1.56000000       0.10900000
C        0.00690000       0.03510000      -0.00980000
C        0.94290000      -0.44970000      -1.15960000
C        2.38820000      -0.56680000      -0.55750000
C        2.14830000      -0.42980000       0.91670000
C        2.76180000       0.04870000       1.99160000
C        1.74930000       0.18870000       3.10670000
O        0.47430000      -0.04320000       2.49310000
C        0.68640000      -0.62160000       1.21560000
H        0.94240000       1.99560000       0.22160000
H       -0.51550000       1.99670000      -0.78350000
H       -0.64320000       1.85390000       0.98270000
H       -1.00640000      -0.35210000      -0.15720000
H        0.61500000      -1.43100000      -1.51700000
H        0.90710000       0.22620000      -2.01830000
H        2.84290000      -1.52800000      -0.82180000
H        3.06230000       0.21000000      -0.92970000
H        3.79470000       0.35870000       2.09040000
H        1.91090000      -0.53240000       3.92590000
H        1.75370000       1.19260000       3.55350000
H        0.40850000      -1.69110000       1.24270000
