14
Properties=species:S:1:pos:R:3 gdb_25466=T pbc="F F F"
O       -0.04750000      -0.07070000      -0.00170000
C       -0.03100000       1.13150000       0.00760000
N        1.16990000       1.88430000       0.00010000
C        2.37300000       1.20960000      -0.01860000
C        3.54820000       1.87600000      -0.02640000
C        3.52860000       3.30630000      -0.01500000
C        2.35760000       3.99130000       0.00350000
C        1.07160000       3.32010000       0.01250000
O       -0.01620000       3.86570000       0.02880000
H       -0.90970000       1.78590000       0.02250000
H        2.27060000       0.13230000      -0.02590000
H        4.48130000       1.32920000      -0.04110000
H        4.47000000       3.84700000      -0.02120000
H        2.31570000       5.07320000       0.01240000
