22
Properties=species:S:1:pos:R:3 gdb_59710=T pbc="F F F"
C       -0.01620000       1.50170000      -0.09230000
C        0.00230000      -0.02960000      -0.00580000
C        0.82880000      -0.50530000       1.19690000
C       -1.42170000      -0.59260000       0.05370000
O       -2.14770000      -0.12460000      -1.08940000
C       -3.11050000      -1.08630000      -1.50100000
C       -2.60800000      -2.41680000      -0.98400000
N       -1.19130000      -2.65530000      -1.32920000
C       -1.54810000      -2.10680000      -0.00200000
H        1.00070000       1.89630000      -0.18840000
H       -0.60140000       1.83650000      -0.95100000
H       -0.45790000       1.94030000       0.81130000
H        0.44890000      -0.43020000      -0.92330000
H        1.84050000      -0.08960000       1.15590000
H        0.37890000      -0.17850000       2.14270000
H        0.92120000      -1.59560000       1.22730000
H       -1.91340000      -0.24350000       0.98080000
H       -4.10300000      -0.87430000      -1.07030000
H       -3.18430000      -1.03570000      -2.59250000
H       -3.28980000      -3.25260000      -0.86890000
H       -0.99100000      -3.64800000      -1.23250000
H       -1.39270000      -2.69980000       0.89210000
