18
Properties=species:S:1:pos:R:3 gdb_78738=T pbc="F F F"
C        0.01750000       1.52410000      -0.03320000
N        0.02620000       0.07430000       0.10780000
C       -0.89560000      -0.56580000       1.01550000
C        0.04860000      -1.63180000       1.38610000
C        1.12490000      -0.60450000       0.86220000
C        1.16340000       0.02600000       2.28780000
C       -0.22020000      -0.57960000       2.47320000
C       -1.03940000      -0.70920000       3.67050000
O       -0.80760000      -0.16790000       4.72920000
H        0.89210000       1.82970000      -0.61600000
H       -0.87630000       1.81500000      -0.59450000
H        0.01710000       2.07920000       0.91640000
H       -1.97220000      -0.57110000       0.89770000
H       -0.01710000      -2.70960000       1.40880000
H        2.03370000      -0.83080000       0.30770000
H        1.89220000      -0.49000000       2.91730000
H        1.30290000       1.10610000       2.37880000
H       -1.94040000      -1.35590000       3.54140000
