18
Properties=species:S:1:pos:R:3 gdb_55488=T pbc="F F F"
C       -0.30310000       1.42120000       0.36310000
C       -0.43150000      -0.07900000       0.55740000
O       -0.24470000      -0.61540000       1.61930000
C       -0.81940000      -0.86450000      -0.71170000
C       -1.01500000      -2.28630000      -0.49490000
C       -1.17020000      -3.46260000      -0.28760000
C       -1.37250000      -4.85250000       0.00770000
C       -0.29310000      -5.62920000       0.68990000
N       -1.51610000      -5.28620000       1.42060000
H        0.04860000       1.88260000       1.28610000
H        0.38850000       1.65100000      -0.45480000
H       -1.27420000       1.84930000       0.08890000
H       -1.72290000      -0.39970000      -1.13130000
H       -0.03370000      -0.68130000      -1.45950000
H       -2.03310000      -5.38630000      -0.67080000
H       -0.17630000      -6.68450000       0.45930000
H        0.62650000      -5.10140000       0.92370000
H       -1.33860000      -4.48390000       2.02120000
