19
Properties=species:S:1:pos:R:3 gdb_48362=T pbc="F F F"
O       -0.14090000       0.14960000       0.60690000
C        0.15190000       0.99030000      -0.21210000
C        1.33230000       1.89800000      -0.09250000
C        1.70100000       2.28360000       1.33900000
C        2.53990000       1.28810000       0.61720000
C        1.56240000       2.89750000      -1.20340000
C        1.49750000       2.34670000      -2.65040000
O        0.22180000       2.98220000      -2.87800000
C        0.33270000       3.72910000      -1.64800000
H       -0.46460000       1.13270000      -1.12490000
H        2.08930000       3.28510000       1.48990000
H        1.03790000       1.91440000       2.11250000
H        2.44230000       0.24750000       0.90390000
H        3.51890000       1.58840000       0.25970000
H        2.45390000       3.48880000      -0.98300000
H        2.27260000       2.73740000      -3.32260000
H        1.44410000       1.25750000      -2.76270000
H       -0.56910000       3.64680000      -1.03010000
H        0.54270000       4.79060000      -1.83370000
