20
Properties=species:S:1:pos:R:3 gdb_92715=T pbc="F F F"
C       -0.86370000       1.12430000      -0.00430000
C        0.11900000      -0.04310000      -0.00980000
C        1.22690000       0.03050000      -1.09030000
C        2.37060000      -0.72410000      -0.46440000
C        2.21980000      -0.91330000       0.84690000
C        3.15670000      -1.56810000       1.80930000
C        0.90450000      -0.29030000       1.32280000
C        1.16780000       0.93060000       2.09520000
N        1.39120000       1.88870000       2.70330000
H       -0.35410000       2.07400000       0.18470000
H       -1.37060000       1.19810000      -0.97170000
H       -1.63210000       0.99950000       0.76550000
H       -0.43750000      -0.97130000      -0.18290000
H        0.89400000      -0.39790000      -2.04230000
H        1.51300000       1.07120000      -1.30180000
H        3.23920000      -1.04870000      -1.02800000
H        4.05690000      -1.92860000       1.30520000
H        3.46200000      -0.86920000       2.59770000
H        2.68120000      -2.42040000       2.31130000
H        0.34690000      -0.96550000       1.98400000
