21
Properties=species:S:1:pos:R:3 gdb_59652=T pbc="F F F"
C        0.02520000       1.56440000      -0.12930000
C        0.03880000       0.04780000       0.07440000
O        0.64780000      -0.31240000       1.30360000
C       -1.36590000      -0.56010000      -0.00640000
C       -1.41140000      -2.10120000       0.18660000
O       -2.18370000      -2.29600000       1.36530000
C       -2.95460000      -1.12990000       1.52700000
C       -3.35740000      -0.95110000       2.97190000
O       -2.12410000      -0.06400000       1.10080000
H        1.03780000       1.96130000      -0.02240000
H       -0.34930000       1.82680000      -1.12470000
H       -0.61870000       2.04410000       0.61410000
H        0.65040000      -0.41770000      -0.70920000
H       -0.00480000      -0.11040000       1.98640000
H       -1.84820000      -0.26810000      -0.95020000
H       -1.87920000      -2.59580000      -0.67530000
H       -0.41950000      -2.52500000       0.35750000
H       -3.84320000      -1.17270000       0.86730000
H       -2.46600000      -0.91580000       3.60320000
H       -3.92300000      -0.02390000       3.09160000
H       -3.98310000      -1.78930000       3.28800000
