13
Properties=species:S:1:pos:R:3 gdb_131311=T pbc="F F F"
O       -0.05740000       1.26870000       0.01050000
C        0.03780000      -0.06120000       0.00240000
N        1.14940000      -0.74720000      -0.00810000
N        0.68280000      -2.05120000      -0.01260000
C        1.16390000      -3.34530000      -0.02290000
C        0.01970000      -4.11480000      -0.02030000
N       -1.14380000      -3.35570000      -0.00890000
C       -0.67220000      -2.13590000      -0.00490000
N       -1.10370000      -0.81720000       0.00480000
H        0.84250000       1.62130000       0.00680000
H        2.21320000      -3.57890000      -0.03060000
H       -0.03340000      -5.19270000      -0.02610000
H       -2.04860000      -0.47740000       0.01390000
