18
Properties=species:S:1:pos:R:3 gdb_81061=T pbc="F F F"
N        0.10850000       1.00560000       0.01800000
H        0.00340000       0.02600000      -0.22170000
H        1.68460000       1.21570000       1.26090000
H       -0.12690000       1.54420000      -0.80730000
C       -0.71590000       1.39640000       1.15460000
C       -1.87950000       0.53940000       1.75510000
C       -0.80020000      -0.47800000       2.23350000
C       -0.21360000       0.94160000       2.55630000
C       -1.62170000       1.30360000       3.09310000
C        1.15300000       1.24150000       3.10500000
O        2.10040000       1.31230000       2.14430000
O        1.41210000       1.39420000       4.26770000
H       -0.91930000       2.46860000       1.08010000
H       -2.84750000       0.31330000       1.30590000
H       -1.05730000      -1.08900000       3.10140000
H       -0.28250000      -1.08170000       1.48470000
H       -1.87670000       2.36620000       3.11700000
H       -1.93230000       0.79240000       4.00510000
