17
Properties=species:S:1:pos:R:3 gdb_56776=T pbc="F F F"
O        0.24040000       1.55030000      -0.00490000
C        0.07090000       0.14230000       0.02970000
C        0.60030000      -0.50810000      -1.17900000
C        1.04980000      -1.03200000      -2.16250000
C        0.70790000      -0.43120000       1.26830000
C        0.41490000      -1.71520000       1.96590000
C        0.35280000      -0.40670000       2.73760000
C        1.76610000       0.12450000       2.93450000
O        2.06110000      -0.01360000       1.51280000
H        1.18320000       1.70120000       0.14380000
H       -1.01020000      -0.03410000       0.08700000
H        1.44310000      -1.49280000      -3.03480000
H       -0.55440000      -2.15570000       1.75340000
H        1.21880000      -2.42650000       2.13470000
H       -0.53820000      -0.05580000       3.23940000
H        1.80360000       1.17780000       3.23110000
H        2.45290000      -0.46390000       3.55330000
