23
Properties=species:S:1:pos:R:3 gdb_80019=T pbc="F F F"
C       -0.26220000       1.50950000       1.12950000
C       -0.08380000       0.05890000       0.70930000
C        0.95930000      -0.36210000      -0.39450000
C        2.25080000       0.15500000       0.24780000
C        2.13590000      -0.22870000       1.52350000
C        0.78360000      -0.94860000       1.55560000
C        0.88700000      -1.82900000       0.22890000
C       -0.35670000      -2.65570000      -0.13180000
C        2.09320000      -2.75740000       0.05830000
H        0.68780000       1.99530000       1.36160000
H       -0.75190000       2.08040000       0.33210000
H       -0.90430000       1.57410000       2.01540000
H       -1.07120000      -0.35180000       0.49680000
H        0.78970000      -0.17800000      -1.45710000
H        3.05100000       0.68590000      -0.24810000
H        2.81680000      -0.09620000       2.35240000
H        0.43310000      -1.36830000       2.50050000
H       -1.30470000      -2.12340000      -0.05630000
H       -0.27080000      -3.02820000      -1.15920000
H       -0.42140000      -3.53450000       0.52050000
H        1.99090000      -3.63350000       0.70940000
H        2.14210000      -3.12810000      -0.97230000
H        3.04130000      -2.27300000       0.28910000
