18
Properties=species:S:1:pos:R:3 gdb_64685=T pbc="F F F"
C       -0.09130000       1.68800000       0.15410000
C       -0.06240000       0.17740000       0.05790000
C       -1.37180000      -0.45860000      -0.40830000
C       -1.73020000      -0.07020000      -1.77450000
N       -1.99930000       0.24620000      -2.85280000
C        1.21370000      -0.51080000      -0.33240000
C        0.71100000      -0.62870000       1.10250000
C        1.40260000       0.01500000       2.17970000
C        1.97930000       0.54650000       3.09210000
H        0.85680000       2.07450000       0.53290000
H       -0.27950000       2.13240000      -0.82850000
H       -0.88210000       2.02260000       0.83500000
H       -1.30360000      -1.55140000      -0.37110000
H       -2.19250000      -0.16910000       0.25950000
H        1.16500000      -1.40140000      -0.94960000
H        2.08910000       0.10610000      -0.49790000
H        0.27480000      -1.58940000       1.36480000
H        2.49060000       1.01400000       3.89670000
