15
Properties=species:S:1:pos:R:3 gdb_132376=T pbc="F F F"
N       -0.03370000       1.40740000       0.22230000
C       -0.00420000       0.02310000       0.07920000
C       -1.20240000      -0.70800000       0.06320000
C       -1.13380000      -2.08680000      -0.01910000
F       -2.27730000      -2.78330000      -0.03590000
C        0.06270000      -2.78600000      -0.08870000
C        1.24500000      -2.04230000      -0.07330000
O        2.46970000      -2.63510000      -0.14030000
C        1.21890000      -0.65280000       0.00780000
H        0.78680000       1.89030000      -0.11220000
H       -0.88490000       1.85310000      -0.08570000
H       -2.16760000      -0.21940000       0.12010000
H        0.05890000      -3.86790000      -0.15350000
H        2.35350000      -3.58930000      -0.19200000
H        2.15750000      -0.11060000       0.02070000
