20
Properties=species:S:1:pos:R:3 gdb_40699=T pbc="F F F"
C        0.03580000       0.73430000      -0.74020000
C        1.21530000       0.81860000       0.20330000
C        0.53010000      -0.49850000      -0.01650000
N       -0.11270000      -1.16620000       1.09000000
C       -1.26370000      -0.58710000       1.76950000
C       -1.42030000      -1.80720000       0.92910000
C       -2.20680000      -1.75510000      -0.34740000
C       -3.66840000      -1.59150000      -0.32490000
O       -2.81510000      -0.52360000      -0.73780000
H       -0.89730000       1.18980000      -0.43450000
H        0.21870000       0.79190000      -1.80800000
H        2.21130000       0.96390000      -0.20020000
H        1.04670000       1.30150000       1.16030000
H        1.06930000      -1.21910000      -0.62560000
H       -1.25250000      -0.65940000       2.85410000
H       -1.71310000       0.31920000       1.37190000
H       -1.47890000      -2.78160000       1.41510000
H       -1.77830000      -2.31230000      -1.18210000
H       -4.27740000      -2.03480000      -1.11100000
H       -4.17040000      -1.44260000       0.63000000
