19
Properties=species:S:1:pos:R:3 gdb_80009=T pbc="F F F"
C       -0.09790000       1.54760000       0.00510000
C        0.04320000       0.03060000       0.01240000
C        1.05380000      -0.58370000      -1.00150000
C        2.38280000      -0.14700000      -0.36900000
C        2.21620000      -0.15610000       0.95780000
C        0.77280000      -0.59900000       1.23620000
C        0.77710000      -2.09770000       0.82440000
O       -0.28410000      -2.52850000      -0.04630000
C        0.95870000      -2.08780000      -0.62180000
H        0.86070000       2.05720000       0.12890000
H       -0.54230000       1.88470000      -0.93780000
H       -0.76220000       1.87270000       0.81330000
H       -0.94080000      -0.42200000      -0.11430000
H        0.91370000      -0.34610000      -2.05650000
H        3.29010000       0.06470000      -0.91970000
H        2.95880000       0.04660000       1.71860000
H        0.37580000      -0.37550000       2.22690000
H        1.18600000      -2.85690000       1.48440000
H        1.51930000      -2.83870000      -1.17040000
