15
Properties=species:S:1:pos:R:3 gdb_17303=T pbc="F F F"
O       -0.09250000       1.42000000      -0.06660000
C        0.03490000       0.03770000       0.00660000
C       -1.29430000      -0.74050000       0.05190000
O       -0.86730000      -1.47740000       1.22950000
C        0.38860000      -0.78730000       1.27360000
C        1.57380000      -1.43090000       0.49620000
N        1.01470000      -2.08520000      -0.70760000
C        1.24090000      -0.62600000      -0.72140000
H        0.78090000       1.81660000       0.02690000
H       -2.14900000      -0.09180000       0.27470000
H       -1.51020000      -1.40220000      -0.78980000
H        0.63170000      -0.35250000       2.24690000
H        2.53330000      -1.73920000       0.89430000
H        1.79320000      -2.52150000      -1.20090000
H        1.87810000      -0.15970000      -1.46520000
