17
Properties=species:S:1:pos:R:3 gdb_32113=T pbc="F F F"
C       -0.05370000       1.47550000      -0.02470000
N        0.12520000       0.04050000      -0.03360000
C        0.65830000      -0.66480000       1.01320000
C        1.27770000      -0.02930000       2.11000000
C        1.81480000      -0.81990000       3.11100000
N        1.79020000      -2.15730000       3.12380000
C        1.19840000      -2.74160000       2.08210000
O        1.16400000      -4.09360000       2.08460000
C        0.62240000      -2.06600000       1.01420000
H        0.91050000       1.99320000       0.03790000
H       -0.52980000       1.77520000      -0.96050000
H       -0.68130000       1.82350000       0.80850000
H       -0.44320000      -0.48310000      -0.67740000
H        1.33820000       1.04840000       2.17950000
H        2.29710000      -0.34840000       3.96440000
H        1.61000000      -4.35730000       2.90160000
H        0.16270000      -2.62310000       0.20580000
