15
Properties=species:S:1:pos:R:3 gdb_68775=T pbc="F F F"
O        0.11780000       1.35160000       0.22420000
C        0.02950000      -0.02110000       0.08160000
C       -0.30330000      -0.86760000       1.27720000
C       -1.26380000      -0.80080000       0.09930000
O       -2.51450000      -0.22800000       0.21680000
C       -1.10650000      -1.86870000      -0.93180000
O       -1.97680000      -2.58740000      -1.34070000
O        0.17050000      -1.89000000      -1.38940000
C        0.89270000      -0.70870000      -0.97180000
H       -0.52790000       1.76230000      -0.36270000
H        0.25900000      -1.77220000       1.48910000
H       -0.65350000      -0.30900000       2.13820000
H       -3.13860000      -0.88760000      -0.11850000
H        1.03420000      -0.06030000      -1.84330000
H        1.86920000      -1.02750000      -0.59760000
