20
Properties=species:S:1:pos:R:3 gdb_71698=T pbc="F F F"
C       -0.01760000       1.47070000       0.09200000
C       -0.07120000      -0.03230000       0.07090000
C       -1.29330000      -0.78290000      -0.42410000
C       -0.74270000      -2.18890000      -0.35230000
C        0.24980000      -2.31860000       0.80340000
C        0.68160000      -0.86890000       1.04510000
N        1.18780000      -0.72650000      -0.36380000
C        0.74150000      -2.15930000      -0.61340000
C        1.53310000      -3.02360000      -1.53780000
H        0.95370000       1.81780000       0.45390000
H       -0.16700000       1.88090000      -0.91240000
H       -0.79550000       1.87990000       0.74570000
H       -2.16010000      -0.62120000       0.22680000
H       -1.56700000      -0.49090000      -1.44460000
H       -1.31610000      -3.05880000      -0.64880000
H        0.30300000      -3.15480000       1.48660000
H        1.24550000      -0.48990000       1.89040000
H        2.58710000      -3.05480000      -1.24300000
H        1.14620000      -4.04760000      -1.53710000
H        1.48390000      -2.64170000      -2.56440000
