21
Properties=species:S:1:pos:R:3 gdb_123106=T pbc="F F F"
C        0.04420000       1.49330000       0.08520000
C       -0.04250000      -0.02320000       0.09760000
O        0.71230000      -0.50840000       1.18980000
C        0.70420000      -1.91100000       1.29250000
C        1.49980000      -2.32450000       2.50990000
O        0.75680000      -1.94500000       3.67920000
C        1.34700000      -2.21940000       4.86140000
C        0.48210000      -1.75440000       6.00830000
O        2.41900000      -2.76090000       4.96220000
H        1.08360000       1.81730000      -0.01810000
H       -0.53210000       1.90120000      -0.75050000
H       -0.35250000       1.90690000       1.01660000
H       -1.09230000      -0.35100000       0.18670000
H        0.34460000      -0.44150000      -0.84760000
H       -0.32610000      -2.29560000       1.37240000
H        1.16130000      -2.37460000       0.40070000
H        1.66310000      -3.40700000       2.51500000
H        2.47630000      -1.83200000       2.52050000
H       -0.50750000      -2.21550000       5.94600000
H        0.95880000      -2.01700000       6.95190000
H        0.33970000      -0.67140000       5.95140000
