15
Properties=species:S:1:pos:R:3 gdb_47983=T pbc="F F F"
O       -0.88150000       1.27440000       0.19790000
C        0.21610000       0.88610000      -0.12930000
C        1.39710000       1.71370000      -0.13740000
C        2.41100000       2.37020000      -0.15990000
C        3.57990000       3.18730000      -0.15250000
N        4.75430000       2.74570000      -0.42860000
C        5.65130000       3.90950000      -0.32860000
C        4.82920000       5.02700000       0.36810000
N        3.46120000       4.54750000       0.12630000
H        0.39370000      -0.15840000      -0.45270000
H        6.56360000       3.64480000       0.21220000
H        5.94850000       4.20620000      -1.34310000
H        5.05020000       5.08360000       1.44290000
H        4.98850000       6.01510000      -0.07010000
H        2.72530000       4.83270000       0.75620000
