15
Properties=species:S:1:pos:R:3 gdb_131575=T pbc="F F F"
O        0.28280000       0.70130000       0.99760000
C       -0.10990000       0.20660000      -0.27810000
C       -1.44310000      -0.37170000      -0.19570000
C       -2.54900000      -0.85000000      -0.16290000
C       -3.83320000      -1.44520000      -0.09430000
N       -4.89640000      -0.89670000      -0.70290000
N       -5.90560000      -1.73030000      -0.41560000
C       -5.53810000      -2.78760000       0.35150000
C       -4.19140000      -2.64150000       0.58370000
H        1.16260000       1.07940000       0.89810000
H       -0.11850000       1.00980000      -1.03280000
H        0.59390000      -0.56170000      -0.63930000
H       -6.82160000      -1.51850000      -0.77380000
H       -6.24710000      -3.53860000       0.66150000
H       -3.54590000      -3.28680000       1.15520000
