18
Properties=species:S:1:pos:R:3 gdb_24413=T pbc="F F F"
C       -0.00110000       1.41460000       0.01730000
C        1.44320000       1.95330000       0.00200000
C        2.16690000       1.20500000      -1.06690000
C        1.72120000       0.03830000      -1.64130000
C        0.42490000      -0.57700000      -1.20200000
O       -0.03500000      -0.00040000       0.01690000
C        2.67770000      -0.35270000      -2.62220000
C        3.68070000       0.58840000      -2.60620000
N        3.36240000       1.53250000      -1.65720000
H       -0.52540000       1.73140000       0.92320000
H       -0.54800000       1.81320000      -0.85310000
H        1.42720000       3.03540000      -0.18440000
H        1.90470000       1.80410000       0.98800000
H       -0.35070000      -0.46740000      -1.98130000
H        0.52890000      -1.64870000      -0.99990000
H        2.63990000      -1.22290000      -3.26030000
H        4.58860000       0.66530000      -3.18220000
H        3.92080000       2.33700000      -1.43150000
