13
Properties=species:S:1:pos:R:3 gdb_132870=T pbc="F F F"
N        0.00540000       1.38810000       0.12910000
C       -0.07950000       0.02510000       0.04410000
C       -1.22180000      -0.72080000       0.02420000
C       -1.11250000      -2.13880000      -0.00690000
F       -2.23680000      -2.86010000      -0.02020000
C        0.08550000      -2.74810000      -0.02110000
O        1.22960000      -2.00770000      -0.01440000
C        1.23460000      -0.64260000       0.00820000
O        2.28670000      -0.04620000      -0.01040000
H        0.92070000       1.76010000      -0.08050000
H       -0.78550000       1.94220000      -0.15380000
H       -2.20730000      -0.26910000       0.03900000
H        0.25980000      -3.81280000      -0.04140000
