20
Properties=species:S:1:pos:R:3 gdb_23010=T pbc="F F F"
C        0.01830000       1.48640000       0.63620000
C       -0.10340000      -0.00970000       0.35000000
C       -1.48150000      -0.49820000      -0.04070000
N       -2.39690000       0.38750000      -0.16000000
O       -3.65860000      -0.13730000      -0.48400000
C       -1.61170000      -1.97430000      -0.23110000
C       -2.40800000      -2.59200000      -1.36610000
C       -0.91420000      -2.62170000      -1.42020000
O       -0.19060000      -1.86020000      -2.34430000
H        1.04750000       1.73380000       0.91330000
H       -0.25510000       2.07990000      -0.23980000
H       -0.64240000       1.79020000       1.45250000
H        0.58360000      -0.30850000      -0.45220000
H        0.21410000      -0.58950000       1.22900000
H       -4.19500000       0.66160000      -0.52140000
H       -1.56130000      -2.53660000       0.69940000
H       -2.95200000      -3.51110000      -1.17600000
H       -2.92430000      -1.90350000      -2.02560000
H       -0.40300000      -3.56310000      -1.24870000
H       -0.77300000      -1.18790000      -2.71260000
