18
Properties=species:S:1:pos:R:3 gdb_92238=T pbc="F F F"
O        0.06940000       1.44540000       0.11800000
C        0.01550000       0.05680000      -0.03530000
C        0.41590000      -0.83910000       1.16940000
N       -0.83960000      -1.62040000       1.01830000
C       -1.74900000      -1.71720000       2.16590000
C       -2.70320000      -0.54050000       2.04250000
O       -2.03850000       0.72970000       1.95210000
C       -2.48970000       0.09890000       0.73380000
C       -1.38200000      -0.64700000       0.02340000
H       -0.39830000       1.65620000       0.93570000
H        0.56340000      -0.17510000      -0.95110000
H        1.32290000      -1.44280000       1.05630000
H        0.48010000      -0.26650000       2.10290000
H       -2.32600000      -2.65230000       2.13940000
H       -1.18440000      -1.70280000       3.10450000
H       -3.65940000      -0.52650000       2.56020000
H       -3.26720000       0.63160000       0.19390000
H       -1.75240000      -1.09400000      -0.90690000
