20
Properties=species:S:1:pos:R:3 gdb_90367=T pbc="F F F"
C       -0.01520000       1.57430000      -0.07520000
C        0.01170000       0.05410000       0.02500000
C        1.06490000      -0.67870000      -0.86620000
N        1.77280000      -1.17560000       0.35790000
C        2.73770000      -0.28910000       0.90730000
O        3.82250000       0.02320000       0.50880000
C        1.79680000       0.18430000       2.03640000
C        0.70480000      -0.60910000       1.27260000
C       -0.12850000      -1.59440000       2.06130000
H        0.98850000       2.00760000      -0.01640000
H       -0.44830000       1.88670000      -1.03130000
H       -0.62070000       2.01430000       0.72480000
H       -1.00100000      -0.33690000      -0.11110000
H        0.67140000      -1.50020000      -1.46950000
H        1.69670000      -0.04420000      -1.49420000
H        2.02320000      -0.21060000       3.03050000
H        1.69840000       1.26910000       2.10140000
H       -0.86900000      -1.06640000       2.67360000
H       -0.66670000      -2.27790000       1.39670000
H        0.49950000      -2.19450000       2.72730000
