15
Properties=species:S:1:pos:R:3 gdb_49363=T pbc="F F F"
O        0.03600000      -0.07520000       0.39350000
C       -0.00470000       1.07380000       0.03240000
C        1.20970000       1.93300000      -0.04300000
C        1.46030000       2.88940000      -1.22150000
C        0.50330000       3.01200000      -2.35630000
O        0.86480000       3.08540000      -3.50370000
C        1.11820000       3.43900000       0.15560000
C       -0.14170000       4.08180000       0.40930000
C       -1.17720000       4.64470000       0.64590000
H       -0.96130000       1.56000000      -0.24620000
H        2.09800000       1.44520000       0.34330000
H        2.49670000       2.96660000      -1.53160000
H       -0.57050000       3.05200000      -2.08350000
H        1.95810000       3.87560000       0.68860000
H       -2.09360000       5.14050000       0.85360000
