15
Properties=species:S:1:pos:R:3 gdb_14631=T pbc="F F F"
O        0.81670000       1.81300000      -1.49520000
C        0.57270000       2.06170000      -0.33260000
N        1.34780000       1.66550000       0.71240000
C        2.55420000       0.88060000       0.51220000
C        3.74300000       1.72920000       0.06310000
O        4.08720000       2.66920000       1.08490000
C        3.76590000       3.96390000       0.88820000
O        3.92440000       4.79960000       1.72590000
H       -0.31400000       2.63770000      -0.00440000
H        1.09470000       1.95090000       1.64420000
H        2.79540000       0.37240000       1.44910000
H        2.35740000       0.12570000      -0.25520000
H        4.61980000       1.09650000      -0.10110000
H        3.49870000       2.24550000      -0.87160000
H        3.35740000       4.15550000      -0.12260000
