20
Properties=species:S:1:pos:R:3 gdb_110440=T pbc="F F F"
C        0.05270000       1.59960000      -0.10640000
C        0.09420000       0.08230000      -0.13030000
C        0.74650000      -0.72750000      -1.27280000
C        1.18700000      -1.71510000      -0.12200000
C        2.31740000      -0.78470000       0.10990000
C        2.21260000      -0.21200000      -1.30500000
C        3.08110000      -0.95320000      -2.30650000
O        2.67490000      -0.54990000      -3.60840000
N        1.01370000      -0.60330000       0.84940000
H        1.03800000       2.04870000      -0.25040000
H       -0.61300000       1.97660000      -0.89070000
H       -0.33230000       1.94400000       0.85890000
H       -0.90560000      -0.31510000       0.07760000
H        0.23420000      -0.95990000      -2.20380000
H        1.01440000      -2.75800000       0.10820000
H        3.19570000      -0.90950000       0.73050000
H        2.35460000       0.86430000      -1.44450000
H        4.14170000      -0.71050000      -2.13070000
H        2.96500000      -2.04020000      -2.16860000
H        3.23120000      -1.00060000      -4.25030000
