14
Properties=species:S:1:pos:R:3 gdb_25863=T pbc="F F F"
N       -0.16120000       1.32190000      -0.00180000
C        0.03110000      -0.02700000      -0.00530000
O        1.12740000      -0.56240000      -0.01640000
C       -1.20380000      -0.82150000       0.00420000
C       -1.37480000      -2.15350000       0.00200000
N       -2.73350000      -2.38820000       0.01470000
C       -3.42670000      -1.18910000       0.02460000
N       -4.68280000      -1.04990000       0.03740000
O       -2.45660000      -0.20430000       0.01770000
H        0.64770000       1.91940000      -0.00200000
H       -1.08230000       1.72360000       0.01440000
H       -0.63480000      -2.93440000      -0.00730000
H       -3.20130000      -3.27680000       0.01780000
H       -4.94520000      -0.06850000       0.04240000
