18
Properties=species:S:1:pos:R:3 gdb_35923=T pbc="F F F"
N       -0.06480000      -1.12330000      -0.22320000
C       -0.04410000       0.02350000      -0.08970000
C        0.01710000       1.49040000       0.02870000
O       -0.67470000       1.85420000       1.20910000
C       -0.69160000       3.27020000       1.37610000
C        0.69120000       3.80760000       1.75130000
C        1.79050000       3.17790000       0.89670000
C        2.30600000       1.80140000       1.24490000
C        1.45750000       1.98620000       0.01950000
H       -0.50810000       1.91080000      -0.84720000
H       -1.04830000       3.74110000       0.44590000
H       -1.42640000       3.46950000       2.15970000
H        0.69150000       4.89530000       1.62380000
H        0.88390000       3.61480000       2.81230000
H        2.51900000       3.87100000       0.48950000
H        3.35930000       1.58570000       1.10860000
H        1.84630000       1.30700000       2.09470000
H        1.93840000       1.91600000      -0.95060000
