16
Properties=species:S:1:pos:R:3 gdb_6598=T pbc="F F F"
C       -0.11040000       1.41670000      -0.10540000
C        0.08320000      -0.06250000      -0.00640000
C        0.76150000      -1.04750000      -0.99880000
C        0.00940000      -1.85490000       0.08650000
C        0.60880000      -0.92000000       1.17760000
O       -1.13540000      -0.93100000      -0.03670000
C       -0.27490000      -3.31860000       0.17820000
O        0.56480000      -4.16910000       0.03000000
H        0.85690000       1.92740000      -0.06950000
H       -0.60480000       1.67530000      -1.04650000
H       -0.72610000       1.77930000       0.72300000
H        0.31290000      -1.08970000      -1.99190000
H        1.85170000      -1.10210000      -1.01220000
H        1.68600000      -0.96720000       1.35090000
H        0.02200000      -0.85390000       2.09460000
H       -1.33580000      -3.55900000       0.41130000
