17
Properties=species:S:1:pos:R:3 gdb_2307=T pbc="F F F"
C        0.09500000       1.56930000      -0.19840000
C        0.04460000       0.06790000      -0.01050000
C        1.30510000      -0.76580000      -0.02350000
C        0.50870000      -0.62830000       1.24990000
C        1.06970000       0.13300000       2.44470000
C        1.90870000      -0.70380000       3.29820000
C        2.58950000      -1.40910000       3.99380000
H        1.00200000       2.00800000       0.22770000
H        0.08480000       1.82360000      -1.26400000
H       -0.76510000       2.06350000       0.26770000
H       -0.82090000      -0.39490000      -0.47880000
H        1.30860000      -1.71860000      -0.54120000
H        2.25010000      -0.23240000      -0.07510000
H       -0.06950000      -1.50020000       1.54240000
H        1.65390000       0.99540000       2.10390000
H        0.24540000       0.54490000       3.04280000
H        3.19600000      -2.02490000       4.61010000
