20
Properties=species:S:1:pos:R:3 gdb_5819=T pbc="F F F"
C        0.05190000       1.53520000      -0.07400000
C       -0.02090000      -0.00040000       0.05910000
C        0.74150000      -0.45580000       1.21970000
C        1.37770000      -0.79930000       2.18090000
C       -1.48200000      -0.55090000       0.06570000
C       -1.47280000      -2.08510000       0.06040000
C       -2.30230000      -0.01710000       1.24650000
O       -2.02660000      -0.07410000      -1.17090000
H        1.08820000       1.84700000      -0.22740000
H       -0.54850000       1.86020000      -0.92490000
H       -0.31260000       2.03130000       0.82920000
H        0.43940000      -0.42960000      -0.84100000
H        1.94330000      -1.11120000       3.02370000
H       -1.01010000      -2.48510000       0.96610000
H       -2.49820000      -2.46880000       0.00540000
H       -0.92250000      -2.45810000      -0.80840000
H       -2.40030000       1.06980000       1.19520000
H       -3.31010000      -0.44810000       1.23100000
H       -1.83810000      -0.28350000       2.20010000
H       -2.93790000      -0.37910000      -1.22570000
