19
Properties=species:S:1:pos:R:3 gdb_32585=T pbc="F F F"
C        0.03610000       1.52080000      -0.00070000
C       -0.00710000      -0.01020000       0.03890000
N       -1.35270000      -0.55310000       0.01590000
C       -2.09780000      -0.87090000       1.11840000
C       -3.36360000      -1.23030000       0.69400000
N       -4.52570000      -1.67660000       1.39500000
C       -3.37160000      -1.11380000      -0.72380000
O       -4.44560000      -1.40160000      -1.50220000
C       -2.12700000      -0.69040000      -1.12540000
H        1.07270000       1.87260000       0.01670000
H       -0.44060000       1.90000000      -0.90890000
H       -0.48770000       1.94570000       0.86060000
H        0.54250000      -0.42500000      -0.81340000
H        0.48450000      -0.37980000       0.94450000
H       -1.67100000      -0.81850000       2.10820000
H       -4.86560000      -0.98350000       2.05360000
H       -4.35350000      -2.52860000       1.91860000
H       -5.13210000      -1.67910000      -0.87630000
H       -1.72480000      -0.48800000      -2.10370000
