16
Properties=species:S:1:pos:R:3 gdb_34718=T pbc="F F F"
N       -0.07770000      -1.19350000      -0.13450000
C       -0.05040000      -0.03890000      -0.07170000
C       -0.02050000       1.41320000       0.00280000
C        0.01930000       2.08470000       1.40660000
C        1.53000000       1.67320000       1.57950000
C        2.21230000       2.82130000       2.30480000
C        1.65580000       3.91280000       1.77500000
C        0.66820000       3.36360000       0.75890000
C        1.36170000       2.12510000       0.07990000
H       -0.73410000       1.84190000      -0.70620000
H       -0.76380000       2.05400000       2.16740000
H        1.78640000       0.63970000       1.80740000
H        2.97050000       2.73110000       3.06920000
H        1.83480000       4.95690000       1.98790000
H        0.05480000       4.03680000       0.15890000
H        2.13190000       2.14100000      -0.69450000
