15
Properties=species:S:1:pos:R:3 gdb_131163=T pbc="F F F"
O       -0.02700000       1.36210000      -0.03280000
C        0.02680000       0.00000000      -0.03550000
C        0.00490000      -0.88870000      -1.09360000
N       -0.02020000      -0.50380000      -2.43470000
C       -0.01090000      -1.32890000      -3.52610000
N        0.06850000      -2.60030000      -3.44610000
C        0.00710000      -2.16620000      -0.48130000
N        0.01930000      -2.07010000       0.84740000
N        0.03000000      -0.74750000       1.09950000
H        0.86690000       1.72290000       0.01430000
H       -0.14070000       0.48180000      -2.60100000
H       -0.07460000      -0.75310000      -4.45750000
H        0.06780000      -3.00920000      -4.37690000
H        0.00420000      -3.12230000      -0.97450000
H       -0.00530000      -0.41250000       2.04710000
