18
Properties=species:S:1:pos:R:3 gdb_108010=T pbc="F F F"
C        0.05440000       1.35600000       0.07910000
O       -0.06950000      -0.04630000      -0.06800000
C       -1.36150000      -0.52370000      -0.03150000
C       -2.55930000      -0.04660000      -0.89160000
N       -3.44550000      -0.72540000       0.12110000
C       -3.00180000      -2.15880000       0.10930000
C       -2.19400000      -2.06960000       1.37040000
C       -1.48450000      -2.06450000       0.02420000
C       -2.35840000      -0.54390000       1.20050000
H        1.12330000       1.57750000       0.11090000
H       -0.39530000       1.89750000      -0.76410000
H       -0.41010000       1.70850000       1.01050000
H       -2.73190000       1.03290000      -0.84960000
H       -2.65870000      -0.40650000      -1.92000000
H       -3.60720000      -2.95980000      -0.29460000
H       -2.12010000      -2.72810000       2.22400000
H       -0.83450000      -2.80260000      -0.42440000
H       -2.49870000       0.22400000       1.95850000
