23
Properties=species:S:1:pos:R:3 gdb_64365=T pbc="F F F"
C        0.23630000       1.53310000      -0.16040000
C       -0.03310000       0.02740000       0.01960000
C       -1.53780000      -0.24650000       0.02160000
C        0.70310000      -0.76280000      -1.08020000
O        2.06870000      -0.76950000      -0.69480000
C        2.12150000      -0.88850000       0.72410000
C        0.72980000      -0.50730000       1.25060000
C        0.56070000       0.04370000       2.63820000
C        0.09210000      -1.35630000       2.32210000
H        1.30870000       1.73270000      -0.23730000
H       -0.24190000       1.90570000      -1.07320000
H       -0.15760000       2.10930000       0.68260000
H       -1.99800000       0.14280000      -0.89310000
H       -1.75680000      -1.31690000       0.07650000
H       -2.03450000       0.24510000       0.86580000
H        0.30460000      -1.78960000      -1.14560000
H        0.63750000      -0.30140000      -2.07030000
H        2.38790000      -1.91650000       1.01360000
H        2.91270000      -0.22040000       1.08480000
H        1.44730000       0.16860000       3.25250000
H       -0.19780000       0.80310000       2.80220000
H       -0.97660000      -1.53590000       2.29220000
H        0.67030000      -2.18980000       2.70970000
