14
Properties=species:S:1:pos:R:3 gdb_25223=T pbc="F F F"
N       -0.05410000       1.33180000       0.08760000
C       -0.05210000       0.06280000       0.00040000
N        1.04910000      -0.81970000      -0.14160000
C        0.70260000      -2.24980000      -0.02090000
C       -0.77710000      -2.11710000       0.00700000
C       -1.20800000      -0.84210000       0.01030000
N       -2.59510000      -0.82020000       0.00590000
C       -2.90300000      -2.07580000      -0.00270000
O       -1.83640000      -2.95270000      -0.00770000
H        0.89490000       1.70870000       0.05530000
H        1.93430000      -0.51890000       0.23530000
H        1.07520000      -2.82940000      -0.87570000
H        1.11160000      -2.70270000       0.89350000
H       -3.88120000      -2.52980000      -0.00270000
