19
Properties=species:S:1:pos:R:3 gdb_63129=T pbc="F F F"
C       -0.04790000       1.57320000       0.04250000
C        0.05950000       0.06440000       0.05760000
O       -1.11520000      -0.57160000      -0.38970000
C        1.30080000      -0.71080000      -0.24800000
C        2.57460000      -0.06510000       0.30360000
C        1.95080000      -0.04280000       1.73600000
C        0.68250000      -0.71320000       1.20280000
C        0.00720000      -1.82960000       1.88060000
O        0.33870000      -2.23590000       2.97370000
H        0.85180000       2.06410000       0.41700000
H       -0.21550000       1.92530000      -0.98270000
H       -0.89780000       1.89160000       0.65300000
H       -1.18390000      -0.42860000      -1.34010000
H        1.25700000      -1.52950000      -0.95770000
H        3.43740000      -0.73060000       0.24090000
H        2.85080000       0.89780000      -0.13720000
H        2.46740000      -0.70010000       2.43610000
H        1.82170000       0.93480000       2.20820000
H       -0.82510000      -2.29170000       1.31630000
