16
Properties=species:S:1:pos:R:3 gdb_66744=T pbc="F F F"
O       -0.00110000       1.51830000      -0.20660000
C       -0.01210000       0.14250000      -0.12540000
C       -1.19710000      -0.85340000       0.08650000
C       -0.30850000      -1.64960000       0.95220000
N       -0.33990000      -1.87360000      -0.60070000
C        0.55920000      -0.74150000      -1.21070000
C        2.09240000      -0.73900000      -0.93170000
C        2.05910000      -0.89310000       0.59010000
C        0.79350000      -0.62750000       0.98060000
H        0.06420000       1.87680000       0.68610000
H       -2.27190000      -0.80030000      -0.02870000
H       -0.49200000      -2.53950000       1.54060000
H        0.24530000      -0.61620000      -2.24910000
H        2.63990000      -1.59240000      -1.34710000
H        2.53790000       0.16880000      -1.35900000
H        2.71790000      -1.59220000       1.09610000
