20
Properties=species:S:1:pos:R:3 gdb_30770=T pbc="F F F"
C       -0.18020000       1.40520000       0.08650000
N        0.06550000      -0.01760000      -0.00530000
C        0.35040000      -0.69700000      -1.16700000
C        0.48200000      -2.02850000      -0.86130000
C        0.27390000      -2.16880000       0.53980000
C        0.35380000      -3.44240000       1.32030000
O       -0.84690000      -3.62350000       2.07940000
C        0.01560000      -0.90650000       1.04700000
C       -0.28050000      -0.46900000       2.44410000
H        0.49550000       1.87890000       0.80630000
H       -0.01180000       1.85750000      -0.89230000
H       -1.21110000       1.61650000       0.39220000
H        0.42780000      -0.16880000      -2.10420000
H        0.70500000      -2.82270000      -1.55820000
H        0.50460000      -4.27970000       0.62180000
H        1.22330000      -3.43240000       1.99860000
H       -0.72630000      -4.40480000       2.62900000
H        0.52910000       0.13260000       2.87940000
H       -1.19570000       0.13340000       2.50310000
H       -0.43240000      -1.35060000       3.06790000
