16
Properties=species:S:1:pos:R:3 gdb_66079=T pbc="F F F"
C        0.05010000       1.49110000      -0.03950000
C        0.02680000      -0.02890000       0.05180000
O        0.82840000      -0.63650000      -0.99240000
C        1.64830000      -1.36280000      -0.05540000
C        0.87060000      -0.77050000       1.14270000
C        1.66190000       0.00560000       2.16610000
O        1.38770000       1.09900000       2.58520000
C       -1.35910000      -0.52920000      -0.01020000
N       -2.44300000      -0.92830000      -0.04270000
H        1.07840000       1.85300000      -0.00440000
H       -0.40030000       1.79010000      -0.98990000
H       -0.50790000       1.94210000       0.78280000
H        1.56460000      -2.44620000      -0.18600000
H        2.70290000      -1.07000000      -0.12720000
H        0.29510000      -1.52410000       1.68990000
H        2.55430000      -0.54870000       2.53970000
