19
Properties=species:S:1:pos:R:3 gdb_102028=T pbc="F F F"
C       -0.13570000       1.54740000      -0.01490000
C       -0.02490000       0.02300000      -0.01440000
N        0.68410000      -0.49660000      -1.19410000
C        2.05980000      -0.70040000      -1.13210000
N        2.71900000      -0.44450000      -0.07520000
C        0.05050000      -0.75370000      -2.39990000
O        0.59260000      -1.18230000      -3.39290000
O       -1.26380000      -0.46000000      -2.32420000
C       -2.00040000      -0.71070000      -3.52690000
H        0.85720000       2.00420000      -0.02760000
H       -0.69980000       1.89940000      -0.88310000
H       -0.65450000       1.88350000       0.88840000
H        0.54900000      -0.31200000       0.85050000
H       -1.01150000      -0.43960000       0.01530000
H        2.45200000      -1.08810000      -2.07270000
H        3.70200000      -0.66620000      -0.21830000
H       -1.60190000      -0.11810000      -4.35360000
H       -1.95240000      -1.76850000      -3.79580000
H       -3.02710000      -0.41870000      -3.30630000
