19
Properties=species:S:1:pos:R:3 gdb_15687=T pbc="F F F"
C       -0.14860000       1.47920000       0.08230000
C        0.05990000      -0.03390000      -0.04200000
N        0.72990000      -0.43190000      -1.26450000
C        0.11450000      -0.33970000      -2.57810000
C        1.08440000      -1.13220000      -3.48150000
C        2.43330000      -1.02080000      -2.75630000
C        2.05630000      -0.78320000      -1.29250000
O        2.78500000      -0.86670000      -0.32430000
H        0.81170000       2.00280000       0.06560000
H       -0.76880000       1.87190000      -0.73000000
H       -0.64970000       1.71380000       1.02660000
H        0.68840000      -0.39550000       0.77590000
H       -0.90610000      -0.55260000       0.01720000
H       -0.89420000      -0.76890000      -2.56570000
H        0.02070000       0.70630000      -2.90600000
H        0.76830000      -2.17860000      -3.52480000
H        1.10130000      -0.74750000      -4.50310000
H        3.07180000      -1.90090000      -2.84880000
H        3.01680000      -0.15760000      -3.09800000
