22
Properties=species:S:1:pos:R:3 gdb_11788=T pbc="F F F"
C        0.05200000       1.52830000       0.15270000
C       -0.06420000       0.01360000      -0.06160000
C        0.68590000      -0.50320000      -1.27370000
C        2.24340000      -0.42630000      -1.39790000
C        2.02420000      -1.55410000      -2.44440000
C        0.86190000      -2.03360000      -1.53190000
C        1.26490000      -0.81180000      -3.56090000
C        0.24970000      -0.01530000      -2.67720000
H        1.09880000       1.83370000       0.25730000
H       -0.37480000       2.08890000      -0.68500000
H       -0.47600000       1.83730000       1.06010000
H        0.30530000      -0.50530000       0.83260000
H       -1.12410000      -0.26150000      -0.15460000
H        2.69330000       0.51260000      -1.73710000
H        2.74900000      -0.77980000      -0.49500000
H        2.83160000      -2.22230000      -2.74590000
H        1.21190000      -2.56480000      -0.64260000
H        0.03150000      -2.57910000      -1.99300000
H        1.91860000      -0.15760000      -4.14560000
H        0.77140000      -1.49840000      -4.25530000
H       -0.79250000      -0.27370000      -2.89150000
H        0.35470000       1.06710000      -2.79370000
