18
Properties=species:S:1:pos:R:3 gdb_11755=T pbc="F F F"
C       -0.26670000       1.30690000      -0.03840000
O        0.17060000      -0.03540000       0.09040000
C        0.77500000      -0.52140000      -1.04780000
C       -0.00350000      -1.01010000      -2.23590000
C        0.87300000      -1.97900000      -1.46500000
C        2.33240000      -1.77660000      -1.85370000
O        2.59900000      -2.07370000      -3.20750000
C        2.23860000      -0.26330000      -1.43040000
H        0.57250000       1.99180000      -0.22620000
H       -0.99440000       1.41460000      -0.85480000
H       -0.74130000       1.58040000       0.90650000
H       -1.06440000      -1.13970000      -2.04810000
H        0.25740000      -0.72740000      -3.25130000
H        0.46300000      -2.86280000      -0.99330000
H        3.00930000      -2.32780000      -1.18810000
H        3.52010000      -1.85870000      -3.38550000
H        2.41980000       0.46680000      -2.22570000
H        2.86740000      -0.03460000      -0.56650000
