20
Properties=species:S:1:pos:R:3 gdb_73510=T pbc="F F F"
C       -0.05660000       1.58600000      -0.19890000
C       -0.04120000       0.06650000      -0.02670000
C        1.06650000      -0.59980000      -0.87730000
C        2.25940000      -0.71440000       0.12580000
C        1.53520000      -0.98470000       1.44550000
C        0.29020000      -0.52510000       1.35120000
C       -1.10600000      -0.95580000       1.62020000
N       -2.04990000       0.15390000       1.31740000
C       -1.44390000      -0.58530000       0.19010000
H        0.94890000       1.99800000      -0.06270000
H       -0.38860000       1.85230000      -1.20950000
H       -0.72530000       2.05810000       0.52160000
H        0.76640000      -1.61070000      -1.17700000
H        1.31050000      -0.03840000      -1.78560000
H        2.93630000      -1.53390000      -0.13780000
H        2.87080000       0.19850000       0.14210000
H        1.93850000      -1.61760000       2.22740000
H       -1.42880000      -1.80470000       2.21020000
H       -2.98810000      -0.22190000       1.45730000
H       -2.05390000      -1.13510000      -0.51820000
