19
Properties=species:S:1:pos:R:3 gdb_91195=T pbc="F F F"
C        0.16810000       1.55250000      -0.13410000
C        0.05590000       0.05730000       0.06210000
O        0.87350000      -0.69720000      -0.87240000
C        1.40790000      -1.51410000       0.20080000
C        2.89550000      -1.61660000       0.25640000
C        3.55640000      -1.12500000       1.30140000
C        2.85110000      -0.33940000       2.37530000
O        1.66010000       0.27220000       1.90890000
C        0.76460000      -0.60620000       1.26870000
H        1.19790000       1.88180000       0.01040000
H       -0.15300000       1.81340000      -1.14730000
H       -0.47360000       2.08220000       0.57780000
H       -0.99250000      -0.26700000      -0.01060000
H        0.95740000      -2.51780000       0.17110000
H        3.40170000      -2.13790000      -0.55100000
H        4.63050000      -1.25280000       1.40570000
H        2.64590000      -0.97650000       3.25460000
H        3.48670000       0.48190000       2.72260000
H        0.11890000      -1.10550000       2.00360000
