25
Properties=species:S:1:pos:R:3 gdb_117833=T pbc="F F F"
C        0.16720000       1.53420000      -0.06850000
C        0.08440000       0.01090000       0.06320000
C       -1.34780000      -0.56620000       0.04890000
C       -1.30610000      -2.09740000       0.15070000
C       -2.19300000      -0.00310000       1.20360000
O       -1.53320000      -0.24580000       2.42720000
C       -2.26540000       0.19930000       3.54300000
O       -2.08970000      -0.12280000      -1.09620000
C       -1.67090000      -0.58260000      -2.36090000
H        1.20800000       1.85570000      -0.17270000
H       -0.38830000       1.88690000      -0.94200000
H       -0.24240000       2.03530000       0.81370000
H        0.65640000      -0.46070000      -0.74500000
H        0.55730000      -0.30810000       0.99690000
H       -0.97970000      -2.38180000       1.15390000
H       -2.30310000      -2.51600000      -0.02010000
H       -0.61390000      -2.54240000      -0.57000000
H       -2.35210000       1.07420000       1.04880000
H       -3.18290000      -0.48650000       1.18920000
H       -2.44980000       1.28450000       3.50440000
H       -3.23930000      -0.30940000       3.62140000
H       -1.67540000      -0.02730000       4.43460000
H       -0.64420000      -0.27680000      -2.60680000
H       -1.73850000      -1.67470000      -2.45740000
H       -2.34630000      -0.13060000      -3.09220000
