18
Properties=species:S:1:pos:R:3 gdb_107120=T pbc="F F F"
C       -0.17590000       1.51640000       0.01020000
C        0.12550000       0.05630000       0.04880000
O       -0.70730000      -0.82310000       0.80450000
C        0.70070000      -0.84460000       1.05120000
C        1.41830000      -1.67430000      -0.07680000
C        2.77210000      -2.29270000       0.03930000
O        2.78370000      -3.41980000       0.90280000
N        0.35690000      -2.19290000      -0.98340000
C        0.81490000      -0.78660000      -1.09690000
H        0.68970000       2.08240000      -0.35000000
H       -1.01610000       1.72150000      -0.66290000
H       -0.43970000       1.87620000       1.00810000
H        1.05000000      -0.68540000       2.06470000
H        3.14660000      -2.54360000      -0.96800000
H        3.48040000      -1.58040000       0.47840000
H        2.06760000      -4.00330000       0.62940000
H        0.83860000      -2.70230000      -1.72780000
H        1.23940000      -0.39340000      -2.01230000
