19
Properties=species:S:1:pos:R:3 gdb_69061=T pbc="F F F"
O       -0.27620000       1.39890000       0.09960000
C       -0.09360000       0.03440000      -0.02760000
C       -0.33470000      -0.92250000       1.10540000
C       -1.18220000      -1.02950000      -0.15130000
C       -2.68330000      -0.87490000      -0.12030000
C       -3.36140000      -2.10130000       0.45650000
O       -4.09320000      -2.09670000       1.41260000
C       -0.36090000      -1.74460000      -1.23700000
C        0.72970000      -0.62490000      -1.13820000
H        0.31300000       1.72710000       0.78730000
H        0.38700000      -1.69590000       1.36200000
H       -0.85300000      -0.48590000       1.95410000
H       -2.97380000      -0.00430000       0.47520000
H       -3.05660000      -0.72820000      -1.14450000
H       -3.11880000      -3.05280000      -0.07220000
H       -0.03350000      -2.76080000      -0.99600000
H       -0.85690000      -1.75850000      -2.21100000
H        0.76090000      -0.00700000      -2.03810000
H        1.74850000      -0.93340000      -0.88040000
