19
Properties=species:S:1:pos:R:3 gdb_53713=T pbc="F F F"
C        0.05400000       1.47650000      -0.03550000
C        0.02050000       0.02180000      -0.08890000
C        0.00640000      -1.18110000      -0.13610000
C       -0.04630000      -2.63680000      -0.18530000
C       -1.45150000      -3.17330000       0.10310000
O       -1.39700000      -4.58370000       0.03210000
C       -2.62890000      -5.20810000       0.27850000
C       -2.42950000      -6.71030000       0.17180000
O       -3.30970000      -7.51250000       0.33310000
H        0.78370000       1.83170000       0.70050000
H        0.32710000       1.90510000      -1.00610000
H       -0.92280000       1.88680000       0.24360000
H        0.26890000      -3.00160000      -1.17050000
H        0.64800000      -3.07330000       0.54300000
H       -1.78530000      -2.84690000       1.10040000
H       -2.16840000      -2.77460000      -0.63150000
H       -3.02040000      -4.97340000       1.28320000
H       -3.40280000      -4.90130000      -0.44580000
H       -1.38440000      -7.00320000      -0.07160000
