19
Properties=species:S:1:pos:R:3 gdb_112240=T pbc="F F F"
C        0.07280000       1.56600000       0.15530000
C       -0.00130000       0.05850000      -0.10470000
C       -1.39470000      -0.55070000       0.02890000
C       -1.46710000      -2.10100000      -0.06600000
C       -2.01480000      -2.07720000       1.37180000
O       -2.39610000      -2.88600000       2.16260000
N       -1.93080000      -0.67180000       1.40770000
C       -2.41920000       0.29630000       2.27030000
N       -2.84680000       0.02660000       3.43450000
H        1.08040000       1.94330000      -0.04220000
H       -0.62000000       2.11730000      -0.49050000
H       -0.16750000       1.80990000       1.19450000
H        0.34400000      -0.15220000      -1.12500000
H        0.67950000      -0.47250000       0.57190000
H       -2.10220000      -0.04070000      -0.63630000
H       -2.17460000      -2.49760000      -0.79630000
H       -0.50620000      -2.60800000      -0.17650000
H       -2.39450000       1.29210000       1.81070000
H       -3.18230000       0.87600000       3.88600000
