16
Properties=species:S:1:pos:R:3 gdb_126102=T pbc="F F F"
C        0.07220000       1.54140000       0.00910000
C       -0.00460000       0.00320000       0.00290000
C       -1.37340000      -0.49700000       0.01280000
C       -2.51620000      -0.88630000       0.02100000
C       -3.84440000      -1.34910000       0.03030000
C       -5.07430000      -0.71290000       0.04240000
N       -6.05860000      -1.64740000       0.04740000
N       -5.52300000      -2.83640000       0.03940000
N       -4.19140000      -2.66830000       0.02910000
H        1.11650000       1.86580000       0.00120000
H       -0.42620000       1.95920000      -0.86950000
H       -0.41050000       1.95130000       0.90000000
H        0.51650000      -0.38890000      -0.88020000
H        0.53200000      -0.39670000       0.87310000
H       -5.28470000       0.34360000       0.04740000
H       -3.58160000      -3.47080000       0.02170000
