22
Properties=species:S:1:pos:R:3 gdb_9910=T pbc="F F F"
C        0.20620000       1.48820000      -0.25530000
C       -0.05760000       0.00740000       0.03010000
C        0.76260000      -0.53340000       1.20620000
C        0.49820000      -2.01940000       1.48700000
C        1.37820000      -2.60190000       2.58000000
C        1.19200000      -2.06020000       3.98170000
C        1.94160000      -3.94960000       2.40450000
O        2.75120000      -2.79060000       2.19160000
H        1.26150000       1.66290000      -0.49240000
H       -0.38900000       1.84490000      -1.10180000
H       -0.04340000       2.10950000       0.61210000
H       -1.12670000      -0.14240000       0.23320000
H        0.16500000      -0.58450000      -0.86760000
H        1.83250000      -0.40050000       1.00140000
H        0.54200000       0.06420000       2.10020000
H       -0.55590000      -2.16540000       1.76040000
H        0.66720000      -2.59130000       0.56720000
H        0.16550000      -2.22330000       4.32790000
H        1.87620000      -2.55270000       4.67680000
H        1.39140000      -0.98480000       4.01830000
H        2.20110000      -4.54650000       3.27870000
H        1.70310000      -4.52500000       1.51020000
