18
Properties=species:S:1:pos:R:3 gdb_16245=T pbc="F F F"
C        0.22620000       1.65580000      -0.12760000
C        0.01060000       0.14830000       0.05690000
C        0.64830000      -0.66360000      -1.08350000
O        2.02830000      -0.75320000      -0.73670000
C        2.10360000      -0.95360000       0.66840000
C        0.78770000      -0.42070000       1.24440000
C        0.59050000      -0.03760000       2.64310000
O        0.09140000      -1.28530000       2.14890000
H        1.28520000       1.87830000      -0.29120000
H       -0.33100000       2.02150000      -0.99600000
H       -0.10920000       2.21990000       0.74790000
H       -1.05210000      -0.07740000       0.17890000
H        0.19510000      -1.66540000      -1.15160000
H        0.58410000      -0.18180000      -2.06270000
H        2.19430000      -2.02000000       0.92300000
H        2.98880000      -0.42730000       1.03940000
H        1.41880000      -0.11110000       3.34790000
H       -0.16780000       0.70010000       2.90480000
