19
Properties=species:S:1:pos:R:3 gdb_58375=T pbc="F F F"
C        1.01590000      -0.28960000      -0.91770000
N        0.01980000       0.02820000       0.09860000
C       -0.02550000       1.45770000       0.37870000
C       -1.30870000      -0.53260000      -0.14260000
C       -1.89010000      -0.18730000      -1.45230000
C       -2.32040000       0.10370000      -2.53690000
C       -1.32260000      -2.07430000       0.04070000
C       -0.86300000      -2.47980000       1.36660000
N       -0.52160000      -2.81490000       2.41800000
H        1.98760000       0.08210000      -0.58130000
H        1.10820000      -1.37130000      -1.04540000
H        0.79370000       0.15720000      -1.90120000
H       -0.34650000       2.06340000      -0.48680000
H       -0.71180000       1.65130000       1.20870000
H        0.97070000       1.79470000       0.67920000
H       -1.95970000      -0.11910000       0.63670000
H       -2.71510000       0.36750000      -3.48750000
H       -2.34320000      -2.43880000      -0.11200000
H       -0.70240000      -2.55500000      -0.72110000
