15
Properties=species:S:1:pos:R:3 gdb_28975=T pbc="F F F"
N       -0.00560000       1.38750000       0.13720000
C       -0.00700000       0.01060000       0.04340000
C       -1.19600000      -0.72870000       0.03030000
C       -1.13690000      -2.11170000      -0.00690000
C        0.11090000      -2.73650000      -0.03110000
N        1.25550000      -2.06130000      -0.02660000
C        1.20800000      -0.72160000       0.00700000
C        2.44380000      -0.00440000      -0.00130000
C        3.44860000       0.66150000      -0.01620000
H        0.86080000       1.83930000      -0.11730000
H       -0.82970000       1.86210000      -0.19710000
H       -2.15040000      -0.21110000       0.05450000
H       -2.04600000      -2.70320000      -0.01720000
H        0.18960000      -3.81970000      -0.05930000
H        4.35650000       1.21260000      -0.01950000
