20
Properties=species:S:1:pos:R:3 gdb_78504=T pbc="F F F"
C       -0.04970000       1.61020000       0.02480000
C        0.08000000       0.09930000      -0.06780000
C        0.82530000      -0.59140000      -1.19280000
C        2.30840000      -0.68100000      -0.72850000
O        3.33140000      -0.98250000      -1.60380000
C        2.36840000      -0.02740000       0.63890000
N        1.00150000      -0.62490000       0.92110000
C        1.28850000      -1.64590000      -0.21660000
C        1.18250000      -3.12590000      -0.11520000
H        0.86960000       2.13450000      -0.24740000
H       -0.83750000       1.95550000      -0.65350000
H       -0.32930000       1.90620000       1.04190000
H       -0.90920000      -0.35200000       0.07050000
H        0.57420000      -0.72080000      -2.24000000
H        3.46000000      -0.23430000      -2.19710000
H        3.10170000      -0.51010000       1.29090000
H        2.44440000       1.05890000       0.74800000
H        0.15170000      -3.44420000       0.07430000
H        1.51710000      -3.58760000      -1.04960000
H        1.80930000      -3.51100000       0.69640000
