21
Properties=species:S:1:pos:R:3 gdb_75597=T pbc="F F F"
C       -0.03800000       1.55520000      -0.20480000
C       -0.00250000       0.05610000      -0.02580000
C       -1.11880000      -0.68730000      -0.09870000
C       -1.18520000      -2.19250000      -0.07150000
O       -1.35900000      -2.75070000       1.23400000
C       -0.17090000      -3.09250000       1.90480000
C        0.73900000      -1.89420000       2.26980000
C        1.64330000      -1.39440000       1.17450000
C        1.32500000      -0.52950000       0.20190000
H        0.61690000       1.86180000      -1.03040000
H       -1.04800000       1.91210000      -0.42120000
H        0.32780000       2.07200000       0.69050000
H       -2.06890000      -0.17380000      -0.23420000
H       -2.06000000      -2.52150000      -0.64240000
H       -0.29050000      -2.62170000      -0.54220000
H       -0.50130000      -3.57530000       2.83010000
H        0.40570000      -3.83250000       1.32520000
H        0.08000000      -1.09230000       2.62000000
H        1.35950000      -2.20190000       3.11920000
H        2.67030000      -1.75400000       1.20860000
H        2.12050000      -0.17990000      -0.45630000
