23
Properties=species:S:1:pos:R:3 gdb_89734=T pbc="F F F"
C       -0.94790000       1.01890000      -0.13000000
C        0.14380000      -0.03870000      -0.07100000
C        1.52250000       0.24010000      -0.74060000
C        2.18090000      -0.49380000       0.43090000
C        2.98500000      -1.75450000       0.32900000
C        3.60650000      -0.49660000       0.89350000
C        0.89960000      -0.36100000       1.26900000
C        0.94670000       0.78280000       2.27830000
O        0.53840000      -1.57450000       1.90690000
H       -0.59110000       1.99470000       0.21620000
H       -1.30830000       1.14760000      -1.15670000
H       -1.81150000       0.74120000       0.48570000
H       -0.24050000      -0.99610000      -0.43720000
H        1.68080000      -0.17140000      -1.74080000
H        1.76230000       1.30960000      -0.76160000
H        2.74150000      -2.55450000       1.01880000
H        3.29600000      -2.08130000      -0.65850000
H        4.33870000       0.03280000       0.29160000
H        3.80120000      -0.46300000       1.96120000
H        1.28920000       1.71460000       1.81960000
H       -0.04440000       0.97090000       2.71050000
H        1.63460000       0.53320000       3.09190000
H       -0.16120000      -1.38640000       2.54110000
