23
Properties=species:S:1:pos:R:3 gdb_97892=T pbc="F F F"
C        0.03270000       1.49920000       0.36480000
C        0.01730000      -0.00260000       0.03580000
C        0.82530000      -0.77890000       1.08890000
C       -1.43360000      -0.51290000       0.01620000
C        0.62580000      -0.24250000      -1.37840000
C        2.01280000       0.18320000      -1.52790000
C        3.16000000       0.53480000      -1.63240000
C        4.54440000       0.96400000      -1.78110000
O        5.33530000       0.39910000      -0.74020000
H        1.05310000       1.89300000       0.35840000
H       -0.55380000       2.07010000      -0.36420000
H       -0.39700000       1.68240000       1.35530000
H        0.40570000      -0.62430000       2.08870000
H        0.81070000      -1.85530000       0.88360000
H        1.86990000      -0.45470000       1.10290000
H       -2.03460000       0.02130000      -0.72830000
H       -1.47650000      -1.58190000      -0.22090000
H       -1.90860000      -0.36970000       0.99240000
H        0.54730000      -1.31130000      -1.61890000
H        0.00930000       0.28160000      -2.12120000
H        4.91360000       0.65370000      -2.77260000
H        4.58820000       2.06540000      -1.75790000
H        6.23880000       0.70530000      -0.86990000
