21
Properties=species:S:1:pos:R:3 gdb_92918=T pbc="F F F"
C        0.04150000       1.60600000      -0.02510000
C        0.04150000       0.07570000      -0.03110000
C        0.76460000      -0.48940000      -1.26500000
C        1.01990000      -1.96980000      -1.16400000
C        0.90670000      -2.66950000      -0.03760000
C        0.53450000      -2.04460000       1.29670000
C        0.67030000      -0.50330000       1.24280000
C       -0.80830000      -2.46550000       1.70770000
C       -1.91290000      -2.80590000       2.03990000
H        1.06230000       2.00040000       0.04960000
H       -0.40170000       2.00710000      -0.94310000
H       -0.53000000       1.99950000       0.82200000
H       -1.00020000      -0.27110000      -0.06690000
H        0.18080000      -0.27770000      -2.17040000
H        1.72170000       0.03710000      -1.40910000
H        1.31430000      -2.48030000      -2.07850000
H        1.07440000      -3.74280000      -0.03480000
H        1.23690000      -2.42030000       2.05460000
H        1.73860000      -0.25150000       1.26730000
H        0.21300000      -0.06460000       2.13510000
H       -2.88650000      -3.11150000       2.33300000
