18
Properties=species:S:1:pos:R:3 gdb_77326=T pbc="F F F"
C       -0.06230000       1.38460000       0.10830000
N       -0.01890000      -0.04950000      -0.06610000
C       -1.21270000      -0.88210000       0.03390000
C       -0.69130000      -2.27570000      -0.42300000
C        0.80000000      -2.24410000      -0.06870000
C        1.16010000      -0.75870000      -0.06780000
O        2.27020000      -0.27170000      -0.05810000
C       -1.77720000      -0.88930000       1.38970000
C       -2.23430000      -0.88910000       2.50150000
H        0.96540000       1.74850000       0.06420000
H       -0.65160000       1.85860000      -0.68530000
H       -0.50210000       1.65180000       1.07680000
H       -1.98090000      -0.51230000      -0.65730000
H       -1.24540000      -3.08510000       0.05270000
H       -0.82440000      -2.35800000      -1.50510000
H        0.99370000      -2.63690000       0.93550000
H        1.43790000      -2.79140000      -0.76420000
H       -2.63810000      -0.89020000       3.48410000
