14
Properties=species:S:1:pos:R:3 gdb_4584=T pbc="F F F"
N       -0.00560000       1.39300000       0.12050000
C       -0.00720000       0.00320000       0.04640000
C       -1.19220000      -0.74600000       0.04810000
N       -1.19230000      -2.07430000       0.03120000
C       -0.00660000      -2.69200000       0.03230000
N       -0.00740000      -4.08250000       0.09170000
C        1.17830000      -1.94290000       0.02760000
N        1.17840000      -0.61440000       0.02470000
H        0.87760000       1.79340000      -0.16350000
H       -0.79510000       1.85040000      -0.31130000
H       -2.16260000      -0.25350000       0.05610000
H       -0.89400000      -4.48000000      -0.18590000
H        0.77690000      -4.53530000      -0.35410000
H        2.14870000      -2.43540000       0.01890000
