20
Properties=species:S:1:pos:R:3 gdb_66924=T pbc="F F F"
C       -0.05930000       1.58140000      -0.06050000
C        0.02150000       0.06080000       0.03220000
C       -1.33770000      -0.56790000      -0.26350000
N        1.06740000      -0.64240000      -0.85700000
C        2.38220000       0.01750000      -0.47490000
C        2.24400000      -0.59260000       0.90420000
C        1.30990000      -1.62160000       0.31540000
C        0.72170000      -0.59850000       1.21920000
O        0.23800000      -0.82060000       2.49240000
H        0.81680000       2.08360000       0.35590000
H       -0.17120000       1.89270000      -1.10530000
H       -0.93650000       1.94150000       0.48700000
H       -1.71230000      -0.22090000      -1.23140000
H       -1.26970000      -1.65830000      -0.29560000
H       -2.06330000      -0.29490000       0.50960000
H        3.18310000      -0.44410000      -1.06010000
H        2.42220000       1.10190000      -0.60990000
H        2.96640000      -0.73220000       1.70030000
H        1.30010000      -2.70020000       0.26090000
H        0.44410000      -0.05290000       3.03710000
