21
Properties=species:S:1:pos:R:3 gdb_83590=T pbc="F F F"
O        0.02510000       1.40490000       0.03740000
C        0.00640000      -0.01150000       0.01680000
C       -1.40210000      -0.60250000      -0.19930000
C       -1.58930000      -0.29890000      -1.69680000
O       -0.26570000      -0.30290000      -2.27000000
C        0.68660000      -0.58870000      -1.22670000
C        0.92560000      -2.09770000      -1.07660000
C       -0.40680000      -2.84690000      -0.88690000
C       -1.35900000      -2.11840000       0.08290000
H       -0.07310000       1.70620000      -0.87300000
H        0.46150000      -0.34190000       0.95410000
H       -2.14830000      -0.10020000       0.42050000
H       -2.21250000      -1.04140000      -2.20860000
H       -2.04150000       0.68790000      -1.85780000
H        1.61070000      -0.05930000      -1.47810000
H        1.44950000      -2.47990000      -1.95880000
H        1.59020000      -2.25710000      -0.21750000
H       -0.89220000      -2.93730000      -1.86460000
H       -0.22370000      -3.86940000      -0.54180000
H       -1.03520000      -2.27380000       1.12010000
H       -2.36490000      -2.54670000       0.00530000
