15
Properties=species:S:1:pos:R:3 gdb_19246=T pbc="F F F"
O       -0.04120000       1.38820000       0.22260000
C        0.01280000       0.01340000       0.04070000
C       -1.32210000      -0.74490000       0.06020000
N       -2.09600000      -0.12620000      -1.04470000
C       -1.13760000      -1.21480000      -1.33730000
C        0.24740000      -0.55750000      -1.44740000
C        0.48130000       0.39010000      -2.51440000
C        0.67670000       1.19490000      -3.38630000
H       -0.76050000       1.70160000      -0.34380000
H        0.75810000      -0.38500000       0.73130000
H       -1.82180000      -1.20990000       0.90070000
H       -3.03220000      -0.52650000      -1.03360000
H       -1.46210000      -2.13290000      -1.81020000
H        1.03780000      -1.31390000      -1.41810000
H        0.84810000       1.90130000      -4.16010000
