19
Properties=species:S:1:pos:R:3 gdb_111528=T pbc="F F F"
C        0.11230000       1.04840000      -0.33870000
O       -0.10960000      -0.04010000       0.53600000
C       -1.32770000      -0.67000000       0.30880000
C       -1.50730000      -1.72070000      -0.74540000
C       -0.20930000      -2.53070000      -0.91240000
C       -0.31980000      -2.91660000       0.57280000
C       -0.02030000      -4.20890000       1.18770000
O        0.75280000      -3.03690000       1.48560000
C       -1.55020000      -2.06830000       0.77880000
H        1.08780000       1.46940000      -0.08620000
H        0.11640000       0.73150000      -1.39170000
H       -0.65530000       1.82790000      -0.21580000
H       -2.19420000      -0.01700000       0.44150000
H       -2.32960000      -1.71380000      -1.44950000
H       -0.30850000      -3.38540000      -1.58520000
H        0.67780000      -1.95280000      -1.18200000
H       -0.63800000      -4.58050000       2.00530000
H        0.49360000      -4.97750000       0.61050000
H       -2.39060000      -2.32960000       1.41150000
