19
Properties=species:S:1:pos:R:3 gdb_66371=T pbc="F F F"
O       -0.07120000       1.41160000       0.03310000
C        0.01320000      -0.00400000       0.03730000
C       -1.42860000      -0.54060000       0.04840000
C       -1.46600000      -2.06660000      -0.10900000
C       -0.66380000      -2.50780000      -1.34490000
N        0.70280000      -1.98100000      -1.38490000
C        0.74820000      -0.53870000      -1.22600000
C        0.74560000      -0.46410000       1.24170000
N        1.35930000      -0.81680000       2.15630000
H        0.82280000       1.77330000       0.03340000
H       -1.93070000      -0.21440000       0.96330000
H       -1.93830000      -0.05520000      -0.79260000
H       -1.04790000      -2.54120000       0.78760000
H       -2.50550000      -2.40330000      -0.19050000
H       -0.61370000      -3.59920000      -1.40330000
H       -1.17800000      -2.16350000      -2.25330000
H        1.27240000      -2.42770000      -0.67270000
H        0.25670000      -0.06350000      -2.08440000
H        1.79240000      -0.20650000      -1.21550000
