17
Properties=species:S:1:pos:R:3 gdb_51590=T pbc="F F F"
O       -0.80580000       0.73230000       0.40190000
C       -0.07090000       1.67640000       0.27490000
C        1.32860000       1.60070000      -0.31370000
C        1.51530000       2.62530000      -1.41390000
O        1.57680000       4.00330000      -1.01980000
C        2.73120000       3.42740000      -1.62930000
C        3.99210000       3.31610000      -0.78700000
C        4.76820000       4.55170000      -0.79560000
C        5.39790000       5.57420000      -0.82440000
H       -0.37510000       2.69740000       0.59340000
H        2.03470000       1.79050000       0.50300000
H        1.49400000       0.58680000      -0.69040000
H        0.88640000       2.45140000      -2.28940000
H        2.91580000       3.78130000      -2.64450000
H        3.72970000       3.05390000       0.24270000
H        4.60550000       2.49380000      -1.18000000
H        5.95520000       6.47800000      -0.83800000
