19
Properties=species:S:1:pos:R:3 gdb_120688=T pbc="F F F"
C       -0.31440000       1.32070000       0.06520000
O       -0.23670000      -0.07880000      -0.06020000
C        0.79420000      -0.49170000      -0.92940000
C        0.78540000      -1.99470000      -0.98300000
O       -0.02690000      -2.61710000      -1.97340000
C        1.40180000      -2.74130000      -2.10020000
C        2.04240000      -2.09460000      -3.21460000
C        2.60690000      -1.58880000      -4.15100000
C        3.27900000      -0.97520000      -5.28620000
H        0.62150000       1.74810000       0.46050000
H       -0.53130000       1.80650000      -0.89920000
H       -1.12600000       1.54150000       0.76240000
H        0.65450000      -0.08640000      -1.94220000
H        1.77540000      -0.14210000      -0.56050000
H        0.75610000      -2.47890000      -0.00570000
H        1.77220000      -3.74230000      -1.87810000
H        4.35290000      -1.19140000      -5.27150000
H        2.87760000      -1.35040000      -6.23390000
H        3.15850000       0.11350000      -5.27990000
