20
Properties=species:S:1:pos:R:3 gdb_95538=T pbc="F F F"
C       -0.16380000       1.50950000       0.10090000
C        0.03320000      -0.00920000      -0.01050000
C        0.79760000      -0.42630000      -1.27840000
C        2.25750000       0.05340000      -1.24660000
C        2.87390000      -0.23040000       0.09550000
C        2.14120000      -0.52170000       1.17360000
N        0.73980000      -0.53770000       1.16510000
C        0.04710000      -0.97810000       2.26550000
O        0.54500000      -1.38200000       3.29350000
H        0.79430000       2.02810000       0.19060000
H       -0.68290000       1.89230000      -0.78370000
H       -0.76230000       1.75690000       0.98240000
H       -0.95270000      -0.48720000      -0.02530000
H        0.78060000      -1.51940000      -1.34700000
H        0.27630000      -0.03710000      -2.15850000
H        2.82680000      -0.44810000      -2.03830000
H        2.31650000       1.12640000      -1.48050000
H        3.95370000      -0.21470000       0.19240000
H        2.56080000      -0.77120000       2.13950000
H       -1.04720000      -0.92410000       2.10420000
