18
Properties=species:S:1:pos:R:3 gdb_73222=T pbc="F F F"
C       -0.08830000       1.53480000      -0.02750000
C        0.01170000       0.02080000      -0.00150000
C       -1.22790000      -0.79470000       0.45120000
O       -0.43210000      -1.56200000       1.38160000
C        0.72700000      -0.74060000       1.14010000
C        1.86540000      -1.50050000       0.47610000
O        1.57440000      -1.50730000      -0.93200000
C        0.63780000      -0.56600000      -1.25250000
N        0.31650000      -0.24310000      -2.42980000
H        0.90100000       1.99640000      -0.10740000
H       -0.66870000       1.84970000      -0.89910000
H       -0.57240000       1.91270000       0.87800000
H       -1.98470000      -0.19020000       0.96700000
H       -1.71070000      -1.42100000      -0.30530000
H        1.03400000      -0.18630000       2.03310000
H        2.83120000      -1.00570000       0.63710000
H        1.92380000      -2.53510000       0.82290000
H        0.86460000      -0.76760000      -3.11350000
