16
Properties=species:S:1:pos:R:3 gdb_26013=T pbc="F F F"
N        0.80950000      -0.04080000       0.42220000
C       -0.39850000       0.29950000      -0.10650000
O       -0.80890000       1.44190000      -0.14580000
C       -1.19750000      -0.86320000      -0.72360000
C       -0.96040000      -2.22390000      -0.14290000
C       -0.30090000      -3.26800000      -0.71870000
O       -0.28420000      -4.35000000       0.10410000
C       -0.94700000      -3.99180000       1.23530000
C       -1.38090000      -2.70960000       1.14780000
H        1.35710000       0.68150000       0.85950000
H        1.07940000      -1.00250000       0.53500000
H       -2.24840000      -0.57350000      -0.64200000
H       -0.96000000      -0.86720000      -1.79390000
H        0.17770000      -3.39750000      -1.67600000
H       -1.02250000      -4.75340000       1.99370000
H       -1.93640000      -2.16430000       1.89520000
