17
Properties=species:S:1:pos:R:3 gdb_9646=T pbc="F F F"
C        0.28450000       1.50940000       0.13950000
C       -0.29980000       0.11680000      -0.13450000
C        0.33280000      -0.51330000      -1.35050000
O        1.66430000      -1.02600000      -1.22720000
C        0.61690000      -1.96210000      -1.50930000
C        0.32580000      -3.01800000      -0.46490000
C        0.63470000      -2.47410000      -2.87470000
N        0.62580000      -2.89980000      -3.94920000
H        1.36140000       1.44670000       0.32100000
H        0.12460000       2.18120000      -0.71030000
H       -0.18470000       1.96140000       1.01750000
H       -0.15850000      -0.52220000       0.74110000
H       -1.38040000       0.18970000      -0.31010000
H        0.17530000       0.04170000      -2.27790000
H        0.34000000      -2.58600000       0.53570000
H       -0.65160000      -3.47500000      -0.64540000
H        1.08350000      -3.80520000      -0.51160000
