20
Properties=species:S:1:pos:R:3 gdb_102967=T pbc="F F F"
C       -0.10520000       1.50020000      -0.71440000
C        0.04920000       0.03520000      -0.30090000
C        0.95740000      -0.80010000      -1.21550000
N        2.38050000      -0.46940000      -1.21780000
C        2.88850000       0.49510000      -2.17670000
C        4.36810000       0.25070000      -2.44570000
O        5.16380000       1.11530000      -2.70060000
C        0.83210000      -2.29870000      -0.91010000
O       -0.06760000      -2.80740000      -0.29510000
H        0.84500000       2.04150000      -0.67450000
H       -0.49590000       1.58840000      -1.73440000
H       -0.80290000       2.01680000      -0.04850000
H        0.43980000      -0.02730000       0.72370000
H       -0.92800000      -0.45710000      -0.27060000
H        0.60750000      -0.70120000      -2.25610000
H        2.69800000      -0.25530000      -0.27960000
H        2.37440000       0.33130000      -3.13480000
H        2.75310000       1.55560000      -1.91980000
H        4.65180000      -0.82460000      -2.38850000
H        1.68070000      -2.89080000      -1.31950000
