14
Properties=species:S:1:pos:R:3 gdb_123583=T pbc="F F F"
C        0.03420000       1.46340000      -0.00640000
C        1.27710000       0.65980000       0.03900000
C        1.97430000       0.40490000       1.39700000
C        0.88760000      -0.32950000       2.12430000
N        0.64280000      -0.85180000       3.28350000
O       -0.62840000      -1.39430000       3.14990000
N       -1.15740000      -1.18950000       1.88220000
C       -0.22230000      -0.53550000       1.26590000
N       -0.06740000      -0.02210000      -0.03620000
H       -0.29430000       1.96570000       0.90010000
H       -0.26560000       1.94410000      -0.93170000
H        1.87770000       0.57240000      -0.85940000
H        2.86670000      -0.21450000       1.26470000
H        2.28400000       1.32940000       1.89250000
