22
Properties=species:S:1:pos:R:3 gdb_111882=T pbc="F F F"
O       -0.17060000       1.40300000       0.48640000
C       -0.10620000       0.25950000      -0.36120000
C       -1.38590000      -0.51580000      -0.18920000
C       -1.45230000      -2.00270000      -0.30280000
C       -0.25610000      -2.92910000      -0.52170000
C        0.75510000      -2.97110000       0.64310000
C        0.04100000      -2.82970000       1.98950000
C       -0.70680000      -1.49570000       2.06570000
N       -1.69620000      -1.33850000       0.98500000
H        0.60510000       1.94570000       0.31530000
H       -0.02580000       0.55690000      -1.41940000
H        0.77550000      -0.35110000      -0.13090000
H       -2.24860000       0.05540000      -0.53290000
H       -2.36710000      -2.39850000      -0.74420000
H       -0.66430000      -3.93890000      -0.64610000
H        0.24770000      -2.69340000      -1.46700000
H        1.31550000      -3.91080000       0.59560000
H        1.49840000      -2.17030000       0.54810000
H       -0.67280000      -3.65410000       2.11850000
H        0.75540000      -2.89470000       2.81740000
H       -1.25450000      -1.43040000       3.01290000
H        0.00890000      -0.66480000       2.06520000
