19
Properties=species:S:1:pos:R:3 gdb_122617=T pbc="F F F"
O       -0.15530000       1.32480000       0.29050000
C        0.03380000      -0.02680000      -0.12240000
C       -1.33930000      -0.66760000      -0.21030000
N       -2.13900000       0.02670000      -1.21960000
C       -3.50400000      -0.44500000      -1.29740000
C       -4.33040000       0.11270000      -2.47560000
O       -4.45350000      -1.23150000      -3.03910000
C       -3.68290000      -1.76820000      -2.03110000
N       -3.28830000      -2.94270000      -1.83960000
H        0.67610000       1.79490000       0.18420000
H        0.52000000      -0.07350000      -1.10720000
H        0.65410000      -0.58010000       0.59840000
H       -1.24250000      -1.71910000      -0.49660000
H       -1.80760000      -0.64130000       0.79090000
H       -2.13120000       1.01630000      -0.98820000
H       -4.04700000      -0.43210000      -0.33650000
H       -5.31210000       0.52920000      -2.24000000
H       -3.77180000       0.76790000      -3.14760000
H       -3.60150000      -3.56760000      -2.58490000
