16
Properties=species:S:1:pos:R:3 gdb_19168=T pbc="F F F"
O       -0.04070000       1.63640000       0.36570000
C        0.02230000       0.28320000       0.75470000
C       -1.17200000      -0.51360000       0.24460000
C       -2.46380000       0.15250000       0.03880000
O       -1.58820000      -0.12010000      -1.07040000
C       -1.12520000      -1.98800000       0.51490000
C       -1.49390000      -2.97300000      -0.50680000
O       -0.12140000      -2.72370000      -0.19050000
H       -0.21590000       1.62830000      -0.58440000
H        0.93780000      -0.20760000       0.39020000
H        0.04590000       0.25910000       1.85000000
H       -3.38000000      -0.43460000       0.05210000
H       -2.55880000       1.20370000       0.29710000
H       -1.21970000      -2.26060000       1.56780000
H       -1.87430000      -3.94590000      -0.19950000
H       -1.81540000      -2.61500000      -1.48120000
