15
Properties=species:S:1:pos:R:3 gdb_19451=T pbc="F F F"
N       -0.09490000      -1.16410000      -0.11590000
C       -0.05060000      -0.00990000      -0.05160000
C       -0.00720000       1.44340000       0.01770000
C        0.00010000       2.07410000       1.47220000
C        1.51780000       1.68880000       1.52010000
C        1.43550000       2.10080000       0.01080000
C        1.03370000       3.57560000       0.14290000
C        0.09790000       3.55810000       1.09580000
H       -0.72780000       1.87110000      -0.68230000
H       -0.71530000       1.75770000       2.22880000
H        2.16080000       2.29220000       2.16260000
H        1.69360000       0.62090000       1.67320000
H        2.18460000       1.81170000      -0.72360000
H        1.43620000       4.39790000      -0.43030000
H       -0.48280000       4.36220000       1.52360000
