25
Properties=species:S:1:pos:R:3 gdb_96197=T pbc="F F F"
C       -0.00480000       1.59490000      -0.03030000
C       -0.02180000       0.05930000      -0.02970000
C        0.71420000      -0.46840000      -1.27460000
C        0.66690000      -1.98200000      -1.52320000
C        1.35420000      -2.84000000      -0.44370000
C        0.58780000      -2.94450000       0.85300000
C        0.22740000      -1.91850000       1.62810000
C       -0.55440000      -2.12810000       2.89880000
C        0.57110000      -0.47810000       1.29460000
H        1.02040000       1.97630000       0.05250000
H       -0.43310000       1.99690000      -0.95460000
H       -0.57760000       2.00110000       0.80990000
H       -1.06920000      -0.26950000      -0.08500000
H        0.30310000       0.03840000      -2.15730000
H        1.76690000      -0.15290000      -1.21220000
H       -0.37540000      -2.30860000      -1.62870000
H        1.15260000      -2.17970000      -2.48720000
H        1.51190000      -3.84740000      -0.84280000
H        2.35990000      -2.43130000      -0.26000000
H        0.30100000      -3.94730000       1.16420000
H       -0.77180000      -3.18500000       3.07540000
H       -0.00650000      -1.74230000       3.76890000
H       -1.50800000      -1.58360000       2.87170000
H        1.66390000      -0.35280000       1.25860000
H        0.22670000       0.16330000       2.11380000
