18
Properties=species:S:1:pos:R:3 gdb_63195=T pbc="F F F"
C        0.01220000       1.51940000      -0.07600000
C       -0.03080000      -0.00600000       0.00280000
C       -1.46160000      -0.54200000      -0.04580000
N        0.84920000      -0.48160000      -1.16230000
C        1.59210000      -1.31300000      -0.56920000
O        2.92150000      -1.01640000      -0.22350000
C        2.30880000      -0.99810000       1.14330000
C        1.22390000      -1.91810000       0.82870000
C        0.75420000      -0.56480000       1.23610000
H        1.04510000       1.87080000      -0.12160000
H       -0.51300000       1.87650000      -0.96570000
H       -0.46900000       1.94750000       0.81170000
H       -1.92560000      -0.25590000      -0.99410000
H       -1.47660000      -1.63300000       0.02700000
H       -2.06780000      -0.13430000       0.77080000
H        3.01740000      -0.92600000       1.95930000
H        0.98180000      -2.92940000       1.12290000
H        0.40410000      -0.35580000       2.24540000
