19
Properties=species:S:1:pos:R:3 gdb_89515=T pbc="F F F"
C        0.07920000       1.58930000      -0.23910000
C        0.01410000       0.10760000       0.05760000
C       -1.34610000      -0.48000000       0.55460000
C       -0.64810000      -1.02930000       1.83610000
O       -0.62640000      -2.42600000       2.01140000
C        0.72530000      -0.48380000       1.32120000
O        1.63610000      -1.43360000       0.82530000
C        1.18530000      -1.77260000      -0.47120000
O        0.60150000      -0.61140000      -1.02130000
H        1.11470000       1.89940000      -0.40590000
H       -0.49880000       1.82430000      -1.13870000
H       -0.33330000       2.17070000       0.59130000
H       -2.13010000       0.26120000       0.72980000
H       -1.73280000      -1.26450000      -0.10070000
H       -0.97340000      -0.51530000       2.75170000
H       -1.52280000      -2.71310000       2.21380000
H        1.25670000       0.18800000       1.99790000
H        2.04380000      -2.06370000      -1.08270000
H        0.45370000      -2.59310000      -0.41220000
