18
Properties=species:S:1:pos:R:3 gdb_79680=T pbc="F F F"
C       -0.01070000       1.66410000       0.02540000
C        0.05250000       0.15630000       0.23530000
N        1.05400000      -0.78870000      -0.26430000
C        2.48170000      -0.37380000       0.03430000
C        2.77020000       0.87770000       0.83060000
C        2.26380000      -0.35050000       1.52550000
C        0.78270000      -0.66700000       1.25440000
C        0.07270000      -1.75570000       1.96760000
O       -1.00400000      -2.19810000       1.64450000
H        0.71920000       2.00400000      -0.71200000
H       -1.00260000       1.92080000      -0.35560000
H        0.13850000       2.22670000       0.95060000
H       -0.91490000      -0.31870000       0.07670000
H        3.24020000      -0.87540000      -0.55130000
H        3.83890000       1.02710000       0.96210000
H        2.21450000       1.79920000       0.76580000
H        2.81550000      -0.87260000       2.29700000
H        0.60860000      -2.14390000       2.86350000
