21
Properties=species:S:1:pos:R:3 gdb_78469=T pbc="F F F"
C        0.07520000       1.61630000       0.06200000
C        0.01090000       0.10350000       0.01570000
C        1.27780000      -0.66800000      -0.27050000
C        0.67090000      -0.68480000       1.12250000
C        0.37650000      -2.18690000       1.31440000
C       -0.82700000      -2.66570000       0.46930000
C       -0.20300000      -2.64840000      -0.96280000
C        1.23110000      -2.16320000      -0.64710000
O        1.47600000      -2.81020000       0.61890000
H        1.02710000       1.95930000       0.48090000
H       -0.02170000       2.04650000      -0.94080000
H       -0.72890000       2.02700000       0.68230000
H       -0.91870000      -0.27710000      -0.39390000
H        2.18730000      -0.11640000      -0.48340000
H        1.12940000      -0.14570000       1.94470000
H        0.37340000      -2.51060000       2.35490000
H       -1.10430000      -3.67940000       0.76590000
H       -1.70960000      -2.03040000       0.57290000
H       -0.16580000      -3.65340000      -1.38830000
H       -0.73390000      -2.00330000      -1.66670000
H        1.99370000      -2.46570000      -1.36430000
