21
Properties=species:S:1:pos:R:3 gdb_112919=T pbc="F F F"
O       -0.05270000       1.38900000      -0.02880000
C        0.02320000      -0.02910000      -0.13190000
C       -1.38230000      -0.57770000       0.05410000
C       -2.39570000      -0.12770000      -1.03990000
C       -3.15240000      -1.39760000      -1.47720000
O       -2.52450000      -1.86440000      -2.68990000
C       -2.91790000      -2.39230000      -0.32820000
C       -1.45260000      -2.12750000       0.06040000
O       -0.54780000      -2.73310000      -0.85370000
H        0.81560000       1.74860000      -0.23120000
H        0.41520000      -0.34020000      -1.10990000
H        0.69220000      -0.44950000       0.63550000
H       -1.74050000      -0.22590000       1.02940000
H       -3.08960000       0.62040000      -0.65050000
H       -1.90070000       0.31820000      -1.90620000
H       -4.21460000      -1.20750000      -1.67350000
H       -2.96920000      -2.67660000      -2.95680000
H       -3.58240000      -2.14970000       0.50990000
H       -3.09590000      -3.43480000      -0.61160000
H       -1.19690000      -2.53640000       1.04240000
H       -0.88090000      -2.52690000      -1.73980000
