19
Properties=species:S:1:pos:R:3 gdb_127302=T pbc="F F F"
C       -0.44120000       1.35180000       0.04400000
N       -0.04600000      -0.03650000      -0.02490000
C        0.48210000      -0.70600000      -1.07700000
C        0.69310000      -2.00350000      -0.66380000
C        0.25330000      -2.02730000       0.68300000
N       -0.19330000      -0.82700000       1.05960000
C        0.23640000      -3.14930000       1.64210000
C       -0.04690000      -4.56390000       1.17820000
C        1.33480000      -4.19330000       1.63610000
H       -0.24850000       1.82310000      -0.92130000
H       -1.50630000       1.43360000       0.27850000
H        0.12870000       1.87220000       0.81900000
H        0.66350000      -0.21600000      -2.02100000
H        1.10350000      -2.81000000      -1.24980000
H       -0.16010000      -2.86840000       2.61140000
H       -0.65420000      -5.19470000       1.81810000
H       -0.21190000      -4.71440000       0.11680000
H        2.11260000      -4.09080000       0.88710000
H        1.68290000      -4.56790000       2.59250000
