20
Properties=species:S:1:pos:R:3 gdb_84075=T pbc="F F F"
C       -0.10770000       1.55330000       0.05120000
C        0.03910000       0.02680000      -0.03930000
C        0.84840000      -0.49620000      -1.20910000
C        0.52830000      -0.23660000      -2.64350000
C        1.85420000      -1.22650000      -0.71390000
N        1.84110000      -1.27220000       0.69400000
C        2.80640000      -1.94580000       1.53070000
C        0.78530000      -0.53040000       1.18660000
O        0.52670000      -0.35250000       2.35890000
H        0.86980000       2.04300000      -0.00040000
H       -0.72670000       1.93900000      -0.76370000
H       -0.57420000       1.81940000       1.00330000
H       -0.96590000      -0.41930000      -0.03580000
H        0.53610000       0.83590000      -2.87630000
H        1.25010000      -0.72550000      -3.30470000
H       -0.47130000      -0.60600000      -2.90860000
H        2.62910000      -1.76250000      -1.24600000
H        2.81360000      -3.02590000       1.34400000
H        3.81820000      -1.55600000       1.36900000
H        2.51500000      -1.76390000       2.56670000
