18
Properties=species:S:1:pos:R:3 gdb_48941=T pbc="F F F"
O        0.02160000      -0.10300000      -0.23330000
C        0.07250000       1.09690000      -0.13730000
C        1.34340000       1.89330000      -0.06450000
C        1.43590000       3.00060000       1.01220000
C        2.02050000       3.91920000      -0.07560000
C        3.49700000       3.65670000      -0.42890000
C        3.01500000       2.44410000      -1.24990000
C        2.67020000       1.20070000      -0.40970000
N        1.55990000       2.94870000      -1.17590000
H       -0.85160000       1.71880000      -0.10950000
H        0.44020000       3.33410000       1.32140000
H        2.03250000       2.79110000       1.90400000
H        1.66420000       4.95040000      -0.11120000
H        3.89710000       4.44440000      -1.07210000
H        4.20110000       3.47740000       0.38920000
H        3.45220000       2.28810000      -2.23750000
H        3.33940000       0.93540000       0.41280000
H        2.49040000       0.31410000      -1.02140000
