16
Properties=species:S:1:pos:R:3 gdb_16648=T pbc="F F F"
C        0.43070000       1.49630000      -0.12310000
C        0.02210000       0.03710000       0.03870000
O        0.39220000      -0.75290000      -1.09390000
C        1.13090000      -1.88190000      -0.69100000
C        2.50790000      -1.62430000      -0.18450000
C        1.35230000      -1.86270000       0.79990000
C        0.63610000      -0.64260000       1.27650000
O        0.48440000      -0.26790000       2.41190000
H        1.51230000       1.59180000      -0.25460000
H       -0.06210000       1.93680000      -0.99350000
H        0.13660000       2.05270000       0.77120000
H       -1.07050000      -0.02200000       0.15820000
H        0.88220000      -2.77970000      -1.24540000
H        3.23760000      -2.42490000      -0.23560000
H        2.91610000      -0.62510000      -0.28580000
H        1.37640000      -2.73460000       1.44000000
