19
Properties=species:S:1:pos:R:3 gdb_126165=T pbc="F F F"
C       -0.18390000       1.70300000      -0.25490000
C       -0.22120000       0.17710000      -0.36260000
C        0.91660000      -0.40670000      -1.22400000
N        2.28370000      -0.13690000      -0.74390000
H        2.80310000      -2.39700000      -1.64500000
H        2.50000000       0.84940000      -0.84090000
H        2.34820000      -0.35290000       0.24850000
C        0.76930000      -1.89360000      -1.39470000
C       -0.28580000      -2.78020000      -1.41630000
N        0.19230000      -4.03620000      -1.64480000
N        1.48950000      -3.98210000      -1.76360000
N        1.83900000      -2.69290000      -1.61730000
H        0.74090000       2.05300000       0.21560000
H       -0.25620000       2.17340000      -1.24220000
H       -1.01710000       2.07200000       0.34960000
H       -0.17160000      -0.27600000       0.63600000
H       -1.18010000      -0.13380000      -0.79400000
H        0.85360000       0.05770000      -2.21930000
H       -1.33970000      -2.59680000      -1.28570000
