16
Properties=species:S:1:pos:R:3 gdb_60512=T pbc="F F F"
O       -0.04200000       1.46940000      -0.10870000
C       -0.08320000       0.07320000      -0.01340000
C        0.46010000      -0.58600000      -1.28070000
C        0.27900000       0.08940000      -2.58470000
N        1.61460000       0.01060000      -1.95820000
C        0.71960000      -0.36180000       1.21890000
O        1.27730000       0.47510000       1.90230000
C        0.75760000      -1.77040000       1.52440000
C        0.76180000      -2.94960000       1.76510000
H        0.47360000       1.76660000       0.66050000
H       -1.11830000      -0.27760000       0.14170000
H        0.46760000      -1.67260000      -1.24130000
H        0.15810000      -0.50410000      -3.48610000
H       -0.22580000       1.05010000      -2.58340000
H        1.80090000       0.91210000      -1.52020000
H        0.77790000      -3.98930000       1.98860000
