14
Properties=species:S:1:pos:R:3 gdb_21626=T pbc="F F F"
N       -0.14410000       1.27800000      -0.11140000
C       -0.07800000      -0.09840000      -0.06390000
N       -1.08890000      -0.93080000      -0.23400000
C       -0.51690000      -2.15770000      -0.01630000
C       -1.34810000      -3.40210000      -0.10240000
O       -2.26560000      -3.33680000      -1.17730000
N        0.76810000      -2.13810000       0.26530000
N        1.03950000      -0.79210000       0.24280000
H        0.65890000       1.73820000      -0.51690000
H       -1.00850000       1.59430000      -0.52830000
H       -0.69870000      -4.26760000      -0.25860000
H       -1.87290000      -3.55080000       0.85670000
H       -2.59000000      -2.42790000      -1.19520000
H        1.96310000      -0.46150000       0.46410000
