21
Properties=species:S:1:pos:R:3 gdb_97922=T pbc="F F F"
C        0.26050000       1.55780000       0.30700000
C       -0.00540000       0.08520000       0.06860000
C       -1.46620000      -0.26320000      -0.22100000
C       -1.98710000       0.34280000      -1.44420000
C       -2.40000000       0.84240000      -2.45890000
C       -2.91780000       1.45930000      -3.67290000
O       -2.64730000       0.62190000      -4.79230000
C        1.05200000      -0.73600000      -0.62350000
C        0.79240000      -0.92660000       0.85430000
H        1.32250000       1.74030000       0.49690000
H       -0.03590000       2.15400000      -0.56230000
H       -0.30190000       1.92640000       1.17370000
H       -1.57330000      -1.35330000      -0.28920000
H       -2.08930000       0.04780000       0.62970000
H       -4.00120000       1.62880000      -3.55760000
H       -2.45440000       2.45170000      -3.79960000
H       -3.00420000       1.06220000      -5.57050000
H        0.73120000      -1.51730000      -1.30440000
H        1.96940000      -0.24010000      -0.92220000
H        1.53220000      -0.55680000       1.55650000
H        0.30010000      -1.84010000       1.17250000
