19
Properties=species:S:1:pos:R:3 gdb_116124=T pbc="F F F"
O       -0.09120000       1.42940000       0.11850000
C        0.02080000       0.02120000      -0.03360000
C       -1.39390000      -0.54930000       0.00060000
C       -1.41790000      -2.07340000      -0.16870000
N       -2.72340000      -2.65460000       0.12200000
C       -3.13580000      -2.36270000       1.49440000
C       -2.89540000      -0.93570000       1.99970000
O       -3.41790000      -0.52100000       3.01800000
N       -2.02860000      -0.18450000       1.25970000
H        0.78470000       1.79420000       0.27300000
H        0.49860000      -0.24310000      -0.98970000
H        0.60970000      -0.42410000       0.78220000
H       -1.94650000      -0.09340000      -0.83780000
H       -1.12090000      -2.33400000      -1.18950000
H       -0.68770000      -2.53040000       0.51300000
H       -3.40960000      -2.27720000      -0.52470000
H       -4.19920000      -2.57920000       1.61950000
H       -2.60110000      -3.03370000       2.18070000
H       -1.89090000       0.76670000       1.57360000
