25
Properties=species:S:1:pos:R:3 gdb_115583=T pbc="F F F"
C        0.01820000       1.53170000       0.18010000
C       -0.12260000       0.03600000      -0.12530000
C        0.68020000      -0.45120000      -1.34660000
C        0.28670000       0.28150000      -2.62730000
C        2.21440000      -0.55330000      -1.04870000
C        2.04230000      -2.05990000      -0.71550000
C        0.67490000      -2.00830000      -1.44830000
O       -0.43810000      -2.64400000      -0.87760000
C       -0.39490000      -4.04800000      -0.98460000
H        1.06680000       1.82450000       0.30330000
H       -0.40820000       2.15420000      -0.61200000
H       -0.50350000       1.78320000       1.10890000
H        0.18190000      -0.53960000       0.75610000
H       -1.17850000      -0.20980000      -0.28440000
H        0.52770000       1.34810000      -2.57580000
H        0.81730000      -0.13140000      -3.49200000
H       -0.78900000       0.19110000      -2.81960000
H        2.81830000      -0.39230000      -1.94630000
H        2.60570000       0.08590000      -0.25370000
H        2.79820000      -2.75340000      -1.09070000
H        1.90520000      -2.23170000       0.35550000
H        0.78800000      -2.32570000      -2.49840000
H       -0.34830000      -4.37370000      -2.03620000
H        0.46960000      -4.47630000      -0.45520000
H       -1.31080000      -4.43890000      -0.53430000
