18
Properties=species:S:1:pos:R:3 gdb_50826=T pbc="F F F"
N        0.91380000      -0.03060000      -0.44370000
C       -0.19990000       0.47420000      -0.09430000
N       -1.36280000      -0.26420000      -0.19170000
C       -2.61520000       0.24870000       0.14290000
O       -2.78350000       1.38650000       0.54290000
N       -3.63930000      -0.63710000      -0.03750000
C       -3.66670000      -2.10880000      -0.00390000
C       -5.15580000      -2.02560000       0.43480000
C       -4.98590000      -0.48150000       0.52330000
H        1.66250000       0.64490000      -0.30500000
H       -0.38640000       1.47500000       0.30020000
H       -1.26920000      -1.19220000      -0.57780000
H       -3.47660000      -2.58670000      -0.97140000
H       -2.99400000      -2.54360000       0.74600000
H       -5.85860000      -2.35290000      -0.33170000
H       -5.39130000      -2.52580000       1.37380000
H       -4.97960000      -0.06790000       1.53690000
H       -5.65900000       0.11790000      -0.09610000
