21
Properties=species:S:1:pos:R:3 gdb_119722=T pbc="F F F"
C       -0.06620000       1.42350000      -0.67950000
O       -0.07210000       0.06920000      -1.06440000
C        0.79300000      -0.72610000      -0.28710000
C        0.70420000      -2.14250000      -0.76980000
O        1.57700000      -3.08260000      -0.12600000
C        1.85810000      -3.71150000      -1.40860000
C        0.85650000      -2.81080000      -2.12040000
C       -0.47830000      -2.82630000      -1.38070000
C       -1.13170000      -4.06020000      -0.80100000
H       -0.39230000       1.55170000       0.36460000
H        0.93350000       1.87340000      -0.78440000
H       -0.76240000       1.95150000      -1.33530000
H        1.83400000      -0.36890000      -0.36240000
H        0.51560000      -0.68630000       0.78170000
H        2.89770000      -3.52630000      -1.70130000
H        1.66780000      -4.79100000      -1.39170000
H        0.97920000      -2.38080000      -3.10540000
H       -1.15940000      -2.10240000      -1.82110000
H       -0.41980000      -4.64200000      -0.21030000
H       -1.95730000      -3.78170000      -0.13740000
H       -1.53960000      -4.70460000      -1.58730000
