15
Properties=species:S:1:pos:R:3 gdb_20786=T pbc="F F F"
C       -0.22050000       1.57470000       0.04470000
C        0.03580000       0.07320000       0.02620000
C        0.76660000      -0.51870000      -1.26270000
N        1.83370000      -0.92030000      -0.32860000
N        3.00520000      -1.54320000      -0.07190000
C        3.04720000      -1.37530000       1.25630000
N        1.99410000      -0.71080000       1.84390000
C        1.26210000      -0.45520000       0.77390000
H        0.68530000       2.13360000      -0.20960000
H       -1.00530000       1.84390000      -0.66910000
H       -0.54460000       1.89340000       1.03940000
H       -0.87790000      -0.48050000       0.26080000
H        0.26650000      -1.35840000      -1.75050000
H        1.08230000       0.22150000      -2.00180000
H        3.88130000      -1.74960000       1.83160000
