19
Properties=species:S:1:pos:R:3 gdb_69334=T pbc="F F F"
C        0.04320000       1.55270000      -0.01210000
C       -0.04040000       0.05880000       0.06720000
C       -1.33560000      -0.77120000       0.00610000
C       -0.70240000      -1.79530000       1.02600000
C       -1.39820000      -1.81300000       2.39050000
C       -0.52730000      -3.15000000       0.50360000
N       -0.37570000      -4.20900000       0.06310000
C        0.59050000      -0.93500000       1.00680000
N        1.10630000      -0.74660000      -0.33590000
H        1.05690000       1.88840000       0.21980000
H       -0.20370000       1.90220000      -1.02150000
H       -0.65450000       2.02650000       0.68630000
H       -2.20420000      -0.27270000       0.44320000
H       -1.60680000      -1.16220000      -0.97860000
H       -2.39750000      -2.25110000       2.31750000
H       -0.82100000      -2.39490000       3.11500000
H       -1.49290000      -0.79080000       2.76880000
H        1.25620000      -0.81260000       1.85480000
H        0.88970000      -1.51610000      -0.96820000
