13
Properties=species:S:1:pos:R:3 gdb_5425=T pbc="F F F"
C        0.10200000       1.50240000       0.05910000
C       -0.05390000       0.02720000       0.04960000
C       -1.10690000      -0.84270000      -0.05470000
C       -2.52490000      -0.50860000      -0.20220000
O       -3.42400000      -1.30920000      -0.29160000
N       -0.62410000      -2.15350000       0.00110000
C        0.64500000      -2.01410000       0.13080000
O        1.07810000      -0.71970000       0.16920000
H        0.74420000       1.83260000      -0.76450000
H       -0.86840000       1.99060000      -0.04290000
H        0.56350000       1.84040000       0.99320000
H       -2.72550000       0.58640000      -0.22740000
H        1.40580000      -2.77450000       0.21250000
