16
Properties=species:S:1:pos:R:3 gdb_27786=T pbc="F F F"
C        0.07160000       1.49190000      -0.03950000
C       -0.06360000       0.00630000       0.00450000
C       -1.21750000      -0.69860000      -0.07860000
C       -1.12470000      -2.12490000      -0.01510000
C       -2.37810000      -2.94840000      -0.10300000
N        0.00920000      -2.75970000       0.11710000
C        1.18570000      -2.05520000       0.20210000
O        2.28370000      -2.50730000       0.32380000
O        1.10640000      -0.62180000       0.13980000
H        0.71620000       1.78570000      -0.87450000
H       -0.90260000       1.97020000      -0.15100000
H        0.54860000       1.85280000       0.87760000
H       -2.16890000      -0.19700000      -0.18840000
H       -2.90020000      -2.74790000      -1.04550000
H       -2.13550000      -4.00880000      -0.03910000
H       -3.06730000      -2.68060000       0.70590000
