13
Properties=species:S:1:pos:R:3 gdb_3399=T pbc="F F F"
O       -0.14820000       1.40490000       0.04260000
C       -0.08590000       0.01370000      -0.03260000
C       -1.33310000      -0.77190000       0.01820000
C       -2.46350000      -0.01920000      -0.70360000
C       -1.60090000      -0.09040000      -1.98650000
O       -1.82990000       0.14120000      -3.13950000
C       -0.45720000      -0.76750000      -1.28850000
H        0.54070000       1.77090000      -0.52210000
H        0.76130000      -0.43060000       0.49160000
H       -1.47750000      -1.60210000       0.69690000
H       -3.37410000      -0.61090000      -0.83030000
H       -2.71130000       0.97190000      -0.32110000
H        0.20960000      -1.51050000      -1.70980000
