20
Properties=species:S:1:pos:R:3 gdb_32748=T pbc="F F F"
C        0.19090000       1.49830000       0.06480000
C       -0.10350000       0.11430000       0.61200000
O        1.10830000      -0.65520000       0.54820000
C        1.01720000      -1.91770000       1.03910000
C        1.23590000      -2.40900000       2.30640000
C        1.60540000      -1.60100000       3.51250000
C        1.04950000      -3.82460000       2.21780000
C        0.73040000      -4.13820000       0.91960000
N        0.70170000      -2.96520000       0.20290000
H        0.53820000       1.43820000      -0.97070000
H       -0.71150000       2.11610000       0.09360000
H        0.96760000       1.98870000       0.65820000
H       -0.44950000       0.16170000       1.65270000
H       -0.88710000      -0.38480000       0.02440000
H        0.80480000      -1.58130000       4.26240000
H        2.49680000      -2.00220000       4.00830000
H        1.82280000      -0.56700000       3.22910000
H        1.14530000      -4.52940000       3.03050000
H        0.52760000      -5.08480000       0.44590000
H        0.57190000      -2.87420000      -0.78940000
