23
Properties=species:S:1:pos:R:3 gdb_77567=T pbc="F F F"
C       -0.44650000       1.54980000       0.38360000
C       -0.10400000       0.07310000       0.22040000
C        0.27640000      -0.46160000      -1.17590000
C       -0.70080000      -1.06720000      -2.14320000
C        1.60000000       0.11270000      -1.60160000
C        1.58570000      -1.02530000      -0.61770000
C        1.24200000      -0.53830000       0.79150000
C        2.22640000       0.37610000       1.51010000
O        0.98890000      -1.69820000       1.57850000
H        0.32190000       2.20420000      -0.03940000
H       -1.39020000       1.78540000      -0.12090000
H       -0.56530000       1.81840000       1.43950000
H       -0.91200000      -0.54130000       0.63140000
H       -1.36010000      -0.30520000      -2.57740000
H       -0.18240000      -1.56120000      -2.97190000
H       -1.33520000      -1.81410000      -1.65220000
H        1.91390000      -0.15920000      -2.60510000
H        1.91710000       1.11020000      -1.30790000
H        2.06330000      -1.97830000      -0.81400000
H        2.49190000       1.25180000       0.91220000
H        1.80070000       0.74150000       2.45370000
H        3.14270000      -0.17510000       1.74230000
H        0.67720000      -1.40450000       2.44170000
