17
Properties=species:S:1:pos:R:3 gdb_77685=T pbc="F F F"
O        0.16240000       1.42950000      -0.03360000
C       -0.01500000       0.04840000      -0.00680000
C       -0.46500000      -0.70590000       1.23060000
O        0.06930000      -1.94750000       1.57690000
C       -1.19050000       0.11210000       2.28530000
O       -2.11750000       0.91890000       1.54820000
C       -2.55880000       0.17260000       0.40300000
C       -1.35640000      -0.65720000      -0.00110000
O       -1.56230000      -1.79350000      -0.77050000
H       -0.57210000       1.82050000       0.46030000
H        0.73840000      -0.45670000      -0.60480000
H        1.02020000      -1.85750000       1.69850000
H       -1.70230000      -0.56630000       2.98370000
H       -0.55790000       0.79920000       2.85610000
H       -3.39820000      -0.49400000       0.64840000
H       -2.88950000       0.90160000      -0.34220000
H       -1.19010000      -2.53590000      -0.27460000
