8
Properties=species:S:1:pos:R:3 gdb_3899=T pbc="F F F"
O       -0.20440000      -0.01960000       0.31710000
C       -0.85870000       0.93000000       0.19230000
N       -1.65750000       1.84010000       0.03250000
C       -1.51120000       3.23350000       0.13830000
O       -0.49750000       3.80660000       0.42470000
N        3.01710000       3.07810000      -0.33170000
N        2.16300000       2.42100000      -0.54480000
H       -2.46280000       3.73900000      -0.07740000
