15
Properties=species:S:1:pos:R:3 gdb_67098=T pbc="F F F"
O        0.23990000       1.37790000      -0.09920000
C        0.17440000       0.01550000      -0.07100000
C        0.39160000      -0.97340000       1.11010000
O       -1.06000000      -0.93740000       1.52100000
C       -1.07630000      -0.93130000       0.06620000
C       -1.84620000      -0.88880000      -1.22880000
C       -0.82430000      -0.87740000      -2.10520000
C        0.48490000      -0.91940000      -1.27140000
C        0.12330000      -1.89220000      -0.09830000
H       -0.16190000       1.71380000       0.71240000
H        1.11340000      -1.03010000       1.92280000
H       -2.91080000      -0.85100000      -1.39830000
H       -0.87790000      -0.84670000      -3.18380000
H        1.44060000      -0.93710000      -1.79330000
H        0.05140000      -2.97730000      -0.10490000
