17
Properties=species:S:1:pos:R:3 gdb_13242=T pbc="F F F"
N        0.15640000      -0.19330000       1.32750000
C       -0.02630000       0.60650000       0.51400000
C       -0.26680000       1.62760000      -0.52800000
O        0.89630000       2.27140000      -0.97120000
C        1.46470000       3.18330000      -0.04790000
C        2.42840000       2.66340000       1.05440000
C        3.33720000       3.88510000       0.74340000
C        2.61690000       4.02230000      -0.62750000
H       -0.71020000       1.13110000      -1.39680000
H       -1.00680000       2.34360000      -0.13650000
H        0.67210000       3.81620000       0.37900000
H        2.04050000       2.54200000       2.06710000
H        2.89070000       1.72620000       0.73420000
H        3.12710000       4.73120000       1.40290000
H        4.41500000       3.71660000       0.72730000
H        3.12880000       3.45220000      -1.40760000
H        2.38440000       5.01960000      -1.00640000
