21
Properties=species:S:1:pos:R:3 gdb_68607=T pbc="F F F"
O       -0.12130000       1.38040000       0.01230000
C       -0.02290000      -0.00800000      -0.02340000
C        0.36410000      -0.82180000      -1.30490000
C       -0.41150000      -1.94820000      -0.55840000
C        0.49980000      -2.20550000       0.66560000
C        0.79360000      -0.72500000       1.07510000
C       -1.32050000      -0.82400000      -0.03330000
C       -2.48180000      -0.80690000       0.90140000
C       -2.64090000      -0.36820000      -0.54970000
H        0.75510000       1.74750000       0.16700000
H       -0.16200000      -0.45760000      -2.18830000
H        1.42570000      -0.98560000      -1.51710000
H       -0.81460000      -2.81220000      -1.08540000
H       -0.01440000      -2.76030000       1.45490000
H        1.40620000      -2.75640000       0.39780000
H        1.85900000      -0.47260000       1.02810000
H        0.42560000      -0.47590000       2.07420000
H       -2.92840000      -1.75120000       1.19780000
H       -2.51590000      -0.03580000       1.66510000
H       -2.77190000       0.69200000      -0.74110000
H       -3.19610000      -1.01950000      -1.21790000
