21
Properties=species:S:1:pos:R:3 gdb_112794=T pbc="F F F"
C       -0.20670000       1.40490000       0.21300000
C       -0.05700000      -0.10950000       0.03280000
C        0.87900000      -0.69430000       1.07780000
O        0.36090000      -0.53480000       2.42620000
C        0.46270000      -1.94170000       2.72200000
C       -0.86850000      -2.53600000       3.14630000
C        1.00530000      -2.22540000       1.28730000
C        0.26490000      -3.21910000       0.43230000
O       -0.15860000      -3.02630000      -0.67900000
H        0.75400000       1.91760000       0.08880000
H       -0.90360000       1.81980000      -0.52100000
H       -0.58400000       1.63800000       1.21280000
H       -1.03470000      -0.59540000       0.10520000
H        0.33460000      -0.34740000      -0.96170000
H        1.86250000      -0.20910000       0.99640000
H        1.21410000      -2.11860000       3.50340000
H       -1.62340000      -2.42980000       2.36090000
H       -0.76650000      -3.59730000       3.39710000
H       -1.23000000      -2.01090000       4.03570000
H        2.04550000      -2.57310000       1.31000000
H        0.15600000      -4.21950000       0.91410000
