15
Properties=species:S:1:pos:R:3 gdb_42454=T pbc="F F F"
O        0.24710000       0.36420000      -0.77630000
C        0.02250000       1.16370000       0.09560000
O        0.97370000       1.66370000       0.94270000
C        2.29570000       1.19060000       0.69860000
C        2.99420000       2.03570000      -0.27860000
N        3.55100000       2.70670000      -1.03550000
N       -1.21500000       1.65240000       0.45560000
C       -1.56340000       3.06380000       0.45440000
C       -2.17040000       2.11040000      -0.53100000
H        2.81900000       1.23300000       1.65640000
H        2.27060000       0.16150000       0.33160000
H       -2.13720000       3.40370000       1.31090000
H       -0.81810000       3.76410000       0.08830000
H       -1.83230000       2.15820000      -1.56210000
H       -3.18850000       1.76110000      -0.39060000
