14
Properties=species:S:1:pos:R:3 gdb_98390=T pbc="F F F"
C       -0.05250000       1.37030000      -0.01770000
O       -0.00780000      -0.06690000       0.04730000
C        0.67110000      -0.56330000       1.08750000
O        1.21850000       0.09980000       1.92900000
N        0.66860000      -1.97900000       1.08020000
C        1.37150000      -2.61030000       2.15720000
O        1.46970000      -3.79120000       2.30490000
C        0.00320000      -2.72130000       0.05740000
O       -0.03090000      -3.91450000       0.00220000
H        0.95680000       1.77780000      -0.10130000
H       -0.63650000       1.59910000      -0.90800000
H       -0.53240000       1.77570000       0.87510000
H        1.80350000      -1.84980000       2.82180000
H       -0.47310000      -2.05390000      -0.67180000
