17
Properties=species:S:1:pos:R:3 gdb_71086=T pbc="F F F"
C       -0.01950000       1.47890000       0.04570000
C       -0.05170000      -0.01770000      -0.03080000
C        0.79220000      -0.78500000      -1.08200000
C        0.12350000      -2.15250000      -0.79780000
C       -0.38250000      -1.79520000       0.68810000
O        0.37860000      -0.70260000       1.19290000
C       -1.39580000      -0.86940000      -0.05500000
C       -1.31260000      -1.82730000      -1.23350000
O       -2.08660000      -2.26500000      -2.03430000
H        1.00940000       1.82480000       0.19160000
H       -0.40150000       1.91570000      -0.88200000
H       -0.62650000       1.84030000       0.87980000
H        0.65430000      -0.44740000      -2.11270000
H        1.85050000      -0.74620000      -0.81560000
H        0.63030000      -3.07410000      -1.06960000
H       -0.62660000      -2.58640000       1.39220000
H       -2.30070000      -0.45070000       0.37690000
