16
Properties=species:S:1:pos:R:3 gdb_48687=T pbc="F F F"
O       -0.60780000       0.71570000       0.62480000
C        0.16700000       0.96350000      -0.26780000
C        1.34350000       1.83840000      -0.10940000
C        1.78020000       2.55500000       1.16990000
C        2.17710000       3.81380000       0.30730000
C        3.56190000       4.24450000       0.33260000
C        4.72380000       4.55560000       0.34620000
C        1.72250000       3.04590000      -0.96230000
N        2.39880000       1.78880000      -1.12180000
H        0.04420000       0.55880000      -1.29530000
H        0.94430000       2.75900000       1.83970000
H        2.58890000       2.07890000       1.72900000
H        1.50690000       4.65080000       0.52130000
H        5.74380000       4.85170000       0.36170000
H        1.21150000       3.47880000      -1.81470000
H        3.33400000       1.77930000      -0.71680000
