12
Properties=species:S:1:pos:R:3 gdb_130536=T pbc="F F F"
O       -0.09340000       1.30560000       0.00970000
N        1.14130000       2.11160000       0.00240000
N        2.22870000       1.53110000      -0.01100000
C        2.41530000       0.14880000      -0.02010000
C        1.34730000      -0.66650000      -0.01440000
C        1.04380000      -2.06660000      -0.01920000
N       -0.25810000      -2.24940000      -0.00740000
C       -0.91210000      -1.01520000       0.00530000
C        0.01260000      -0.01750000       0.00170000
H        3.45390000      -0.15680000      -0.03170000
H        1.74510000      -2.88920000      -0.03050000
H       -1.98810000      -0.95530000       0.01600000
