20
Properties=species:S:1:pos:R:3 gdb_101454=T pbc="F F F"
C       -0.01790000       1.53490000       0.07630000
C       -0.03530000       0.00550000      -0.03750000
C       -1.47980000      -0.52250000      -0.02930000
O       -2.19510000      -0.14180000       1.13980000
C        0.71330000      -0.47870000      -1.28960000
C        2.22320000      -0.10800000      -1.31980000
O        2.89560000      -1.36460000      -1.58240000
C        1.91860000      -2.29960000      -1.56140000
N        0.71050000      -1.95480000      -1.40690000
H        0.99340000       1.93160000       0.21150000
H       -0.44180000       1.99520000      -0.82450000
H       -0.62620000       1.84850000       0.92740000
H        0.47910000      -0.42410000       0.83680000
H       -2.03390000      -0.08580000      -0.86940000
H       -1.47770000      -1.60980000      -0.16580000
H       -1.84470000      -0.65390000       1.87540000
H        0.19890000      -0.07200000      -2.17130000
H        2.49560000       0.59510000      -2.10930000
H        2.58770000       0.27280000      -0.36010000
H        2.27220000      -3.31690000      -1.69070000
