13
Properties=species:S:1:pos:R:3 gdb_80789=T pbc="F F F"
O        0.12390000       1.37370000      -0.13360000
C        0.11110000      -0.00460000      -0.07730000
C       -0.01460000      -0.66460000       1.33180000
O       -1.42660000      -0.18180000       1.36770000
C       -1.30470000      -0.70820000      -0.04700000
C       -2.40050000      -0.60820000      -0.94130000
C       -3.30600000      -0.54310000      -1.72990000
C       -0.59890000      -1.91580000       0.65180000
O       -0.61820000      -3.09730000       0.70470000
H       -0.55800000       1.67860000       0.48280000
H        0.85360000      -0.40070000      -0.77270000
H        0.58400000      -0.53010000       2.22840000
H       -4.11000000      -0.48860000      -2.42240000
