17
Properties=species:S:1:pos:R:3 gdb_99076=T pbc="F F F"
O       -0.12200000       1.34530000      -0.52470000
C       -0.32060000      -0.03370000      -0.55340000
C       -1.43840000      -0.46260000       0.37540000
O       -2.06020000       0.37340000       0.99660000
C       -1.77380000      -1.94090000       0.46370000
C       -3.16640000      -2.19570000      -0.16370000
O       -3.18480000      -1.79930000      -1.53240000
C       -3.57860000      -3.58760000       0.00820000
C       -3.87970000      -4.74640000       0.11520000
H       -0.81710000       1.68740000       0.06020000
H       -0.59790000      -0.39430000      -1.56020000
H        0.59750000      -0.57640000      -0.27180000
H       -1.02430000      -2.55400000      -0.04710000
H       -1.79740000      -2.22900000       1.51930000
H       -3.87840000      -1.53250000       0.34020000
H       -2.84210000      -2.53240000      -2.05560000
H       -4.16860000      -5.76360000       0.21830000
