18
Properties=species:S:1:pos:R:3 gdb_54837=T pbc="F F F"
C        0.24780000       1.39400000      -0.07400000
C        0.14460000      -0.08670000       0.09950000
O       -1.10290000      -0.69870000      -0.21370000
C       -0.95040000      -1.61960000       0.90820000
C        0.44140000      -1.06750000       1.20940000
C        1.29360000      -1.07560000      -0.04690000
C        1.31950000      -2.19040000      -1.05660000
N        2.21180000      -1.98110000      -2.08030000
O        0.64770000      -3.20130000      -0.98870000
H        1.22110000       1.75960000       0.26490000
H        0.12820000       1.66560000      -1.12910000
H       -0.53630000       1.90380000       0.49450000
H       -1.67510000      -1.37420000       1.69190000
H       -1.02850000      -2.66090000       0.59990000
H        0.87220000      -0.92140000       2.19130000
H        2.25610000      -0.59080000       0.10310000
H        2.57520000      -1.06070000      -2.26210000
H        2.15650000      -2.61770000      -2.86010000
