23
Properties=species:S:1:pos:R:3 gdb_115969=T pbc="F F F"
C       -0.02920000       1.52920000       0.07020000
C       -0.02180000       0.02700000      -0.01970000
C       -0.01570000      -0.61810000      -1.18890000
C        0.02080000      -2.11700000      -1.33220000
C        0.39620000      -2.81640000      -0.01850000
C       -0.36550000      -2.20380000       1.16360000
C       -0.10280000      -2.96710000       2.45700000
O       -0.88700000      -2.38680000       3.49100000
C       -0.01610000      -0.71340000       1.29960000
H        0.83300000       1.89500000       0.64360000
H       -0.00140000       1.99580000      -0.91840000
H       -0.92310000       1.89050000       0.59520000
H       -0.03840000      -0.04150000      -2.11210000
H       -0.95850000      -2.47890000      -1.68150000
H        0.73000000      -2.39710000      -2.12170000
H        0.19600000      -3.89190000      -0.09280000
H        1.47530000      -2.70680000       0.15570000
H       -1.44220000      -2.28180000       0.95580000
H       -0.35960000      -4.02970000       2.31600000
H        0.97240000      -2.91890000       2.70060000
H       -0.68440000      -2.84070000       4.31380000
H        0.97630000      -0.60860000       1.76820000
H       -0.71220000      -0.23680000       1.99870000
