17
Properties=species:S:1:pos:R:3 gdb_7526=T pbc="F F F"
C        0.66330000       1.41200000      -0.68570000
C       -0.02550000       0.28410000       0.05080000
C        0.75800000      -0.99030000       0.30890000
C        0.42100000      -0.04780000       1.44870000
O        1.40670000       0.77540000       2.00570000
N       -1.43130000       0.22300000      -0.29690000
C       -2.35500000      -0.67510000       0.12620000
O       -2.16240000      -1.59710000       0.89450000
H        1.69470000       1.50670000      -0.34820000
H        0.65910000       1.23340000      -1.76690000
H        0.16390000       2.36830000      -0.48900000
H        0.23650000      -1.93740000       0.28480000
H        1.78140000      -0.99590000      -0.05240000
H       -0.34630000      -0.39210000       2.13600000
H        1.97950000       0.22020000       2.54510000
H       -1.75700000       0.93850000      -0.92770000
H       -3.34740000      -0.46920000      -0.32380000
