21
Properties=species:S:1:pos:R:3 gdb_95835=T pbc="F F F"
C        0.73580000       1.38270000       0.15140000
C       -0.16210000       0.19020000      -0.14450000
O        0.37410000      -0.46670000      -1.26100000
C       -0.27360000      -1.68480000      -1.62310000
C        0.43650000      -2.88750000      -1.00250000
C        0.34960000      -2.95300000       0.52130000
O        1.24350000      -3.98060000       0.93310000
C        0.70480000      -1.61930000       1.19970000
O       -0.32330000      -0.66470000       0.97620000
H        1.75220000       1.05280000       0.38350000
H        0.78030000       2.04310000      -0.71850000
H        0.33910000       1.93870000       1.00400000
H       -1.19070000       0.52530000      -0.35420000
H       -1.33510000      -1.65480000      -1.34110000
H       -0.21800000      -1.74920000      -2.71460000
H        0.02860000      -3.81300000      -1.42470000
H        1.49580000      -2.84610000      -1.28230000
H       -0.68600000      -3.19300000       0.81290000
H        1.12920000      -4.11550000       1.87940000
H        0.75970000      -1.76920000       2.28520000
H        1.68630000      -1.27060000       0.85810000
