15
Properties=species:S:1:pos:R:3 gdb_33519=T pbc="F F F"
C       -0.11750000      -1.27600000      -0.04550000
C       -0.04740000      -0.07740000      -0.02120000
C        0.01320000       1.38430000       0.03640000
C       -0.53160000       1.95870000       1.41810000
N        0.41730000       2.99120000       1.83290000
C        1.42390000       2.88910000       1.05970000
N        1.40930000       1.88160000       0.10400000
C       -0.69800000       1.96870000      -1.10900000
C       -1.26640000       2.47400000      -2.03920000
H       -0.17480000      -2.33620000      -0.07310000
H       -1.53940000       2.36250000       1.30410000
H       -0.56130000       1.15420000       2.16010000
H        2.30850000       3.51480000       1.13970000
H        1.87710000       2.03830000      -0.77800000
H       -1.77600000       2.91190000      -2.86210000
