25
Properties=species:S:1:pos:R:3 gdb_59464=T pbc="F F F"
C       -0.01930000       1.49050000      -0.30550000
C        0.06640000       0.03560000       0.17960000
C        0.71480000      -0.04800000       1.56950000
C       -1.30950000      -0.61010000       0.18030000
C       -1.91540000      -1.17470000      -1.08260000
C       -1.53130000      -2.10290000       0.04820000
C       -0.41600000      -3.08990000      -0.10630000
C       -0.04750000      -4.01070000       1.03340000
C       -0.72560000      -4.56490000      -0.19560000
H        0.97140000       1.95630000      -0.33870000
H       -0.45760000       1.54990000      -1.30670000
H       -0.64460000       2.08940000       0.36750000
H        0.70550000      -0.51180000      -0.52570000
H        0.10950000       0.48520000       2.31250000
H        0.81030000      -1.08660000       1.89900000
H        1.71220000       0.40500000       1.56980000
H       -2.00930000      -0.10690000       0.84650000
H       -2.96560000      -1.00350000      -1.29340000
H       -1.28570000      -1.19330000      -1.96800000
H       -2.36170000      -2.49370000       0.63330000
H        0.41140000      -2.75280000      -0.72370000
H        0.99930000      -4.24360000       1.19560000
H       -0.63170000      -3.94130000       1.94540000
H       -1.76440000      -4.86670000      -0.10800000
H       -0.14300000      -5.17690000      -0.87540000
