19
Properties=species:S:1:pos:R:3 gdb_38518=T pbc="F F F"
C       -0.02100000       1.56290000      -0.09660000
C        1.53960000       1.60450000       0.02260000
C        2.10620000       1.95940000       1.43820000
C        1.57130000       0.60600000       1.85560000
C        0.72660000       0.16950000       2.78470000
C       -0.19650000      -0.93210000       2.32260000
O       -0.85010000      -0.57150000       1.08670000
C       -0.01650000       0.00020000       0.09820000
C        1.48730000       0.09080000       0.42760000
H       -0.55590000       2.10130000       0.68850000
H       -0.40400000       1.88580000      -1.06700000
H        2.08450000       1.96980000      -0.84810000
H        3.20070000       2.01160000       1.40000000
H        1.72220000       2.84170000       1.95920000
H        0.54690000       0.68460000       3.72330000
H        0.34300000      -1.88060000       2.18040000
H       -1.00460000      -1.11450000       3.03450000
H       -0.22960000      -0.51870000      -0.84320000
H        2.19020000      -0.67270000       0.09090000
