12
Properties=species:S:1:pos:R:3 gdb_4270=T pbc="F F F"
C       -0.02170000       1.49010000       0.08170000
C       -0.00670000       0.00550000      -0.05720000
N       -0.10510000      -0.61010000      -1.16490000
C       -0.07810000      -2.03020000      -1.17100000
O       -0.16750000      -2.65080000      -2.19350000
N        0.05950000      -2.69560000       0.08360000
C        0.14870000      -1.97540000       1.11980000
O        0.12690000      -0.61540000       1.16340000
H        0.90480000       1.83300000       0.55320000
H       -0.12850000       1.94260000      -0.90270000
H       -0.84950000       1.79900000       0.72790000
H        0.25610000      -2.38960000       2.11910000
