20
Properties=species:S:1:pos:R:3 gdb_97374=T pbc="F F F"
C        0.09600000       1.10840000       0.63250000
N       -0.05370000      -0.11690000      -0.12310000
C       -1.07400000      -0.81370000       0.10670000
O       -1.29130000      -1.95640000      -0.58040000
C       -2.42540000      -2.74990000      -0.22710000
C       -3.01370000      -3.29700000      -1.52160000
C       -1.99250000      -3.88140000       0.73060000
C       -1.56270000      -3.40270000       2.03750000
C       -1.22360000      -2.98890000       3.11370000
H        1.03770000       1.08290000       1.19300000
H        0.15910000       1.96060000      -0.05430000
H       -0.72310000       1.30110000       1.34530000
H       -1.85690000      -0.56860000       0.83960000
H       -3.16560000      -2.11930000       0.28320000
H       -3.90150000      -3.90250000      -1.31710000
H       -3.29580000      -2.47550000      -2.18430000
H       -2.27920000      -3.91870000      -2.04240000
H       -2.83240000      -4.57700000       0.85020000
H       -1.18180000      -4.44160000       0.24900000
H       -0.91150000      -2.63410000       4.06470000
