14
Properties=species:S:1:pos:R:3 gdb_45875=T pbc="F F F"
O        0.02410000      -0.05180000      -0.04000000
C        0.01220000       1.15250000      -0.01080000
N       -1.14710000       1.90090000       0.03780000
C       -1.17650000       3.29690000      -0.02670000
N       -0.20650000       4.04130000      -0.35810000
C        1.02720000       3.36730000      -0.73250000
C        1.27740000       2.03400000       0.01880000
C        1.65690000       2.26240000       1.41490000
N        1.95220000       2.45350000       2.51560000
H       -2.00690000       1.38270000       0.15360000
H       -2.14240000       3.73090000       0.22440000
H        0.99420000       3.15390000      -1.81010000
H        1.86870000       4.04380000      -0.56590000
H        2.07430000       1.46190000      -0.46410000
