17
Properties=species:S:1:pos:R:3 gdb_52274=T pbc="F F F"
N       -0.26790000       1.08940000       0.16220000
C       -0.57390000      -0.10960000       0.40750000
O       -0.44450000      -1.03300000      -0.57800000
C       -0.72740000      -2.38630000      -0.24730000
C       -2.22460000      -2.67650000      -0.14840000
C       -2.65320000      -4.17240000      -0.04060000
N       -3.30640000      -3.82600000       1.22470000
C       -2.89260000      -2.51980000       1.24840000
O       -2.99050000      -1.64410000       2.06840000
H       -0.42680000       1.65680000       0.99270000
H       -0.96440000      -0.51090000       1.34830000
H       -0.29610000      -2.96950000      -1.06590000
H       -0.21200000      -2.67800000       0.67810000
H       -2.75360000      -2.13060000      -0.93320000
H       -3.33280000      -4.52740000      -0.82020000
H       -1.81960000      -4.87550000       0.06780000
H       -3.74580000      -4.39520000       1.93300000
