21
Properties=species:S:1:pos:R:3 gdb_88177=T pbc="F F F"
O       -0.31340000       1.43170000      -0.29910000
C       -0.15170000       0.04790000      -0.17300000
C       -0.34660000      -0.62480000       1.16070000
C       -1.40070000      -0.75130000       0.08470000
C       -2.75460000      -0.03700000       0.19120000
C       -3.77640000      -1.02780000      -0.41760000
C       -2.94950000      -1.86640000      -1.40110000
C       -1.62620000      -2.08710000      -0.65120000
O       -0.54740000      -2.53390000      -1.45260000
H        0.43520000       1.85920000       0.12920000
H        0.59510000      -0.38980000      -0.83440000
H        0.27080000      -1.49040000       1.38340000
H       -0.57940000       0.00990000       2.01060000
H       -3.00810000       0.23130000       1.22070000
H       -2.72710000       0.89610000      -0.37960000
H       -4.18570000      -1.67850000       0.36430000
H       -4.62320000      -0.52280000      -0.88950000
H       -3.42540000      -2.80300000      -1.70260000
H       -2.74700000      -1.28670000      -2.31350000
H       -1.75900000      -2.88460000       0.09090000
H       -0.46080000      -1.91860000      -2.18940000
