16
Properties=species:S:1:pos:R:3 gdb_16032=T pbc="F F F"
C        0.00090000       1.56350000      -0.00680000
C        0.05330000       0.05450000      -0.07920000
C        0.65410000      -0.74270000      -1.21720000
C        1.94920000      -0.09930000      -1.69120000
O        2.46230000      -0.01470000      -0.33470000
C        1.31980000      -0.73360000       0.16330000
C        1.50620000      -1.72950000       1.15850000
C        1.65630000      -2.56510000       2.01130000
H        0.97100000       2.00220000      -0.24980000
H       -0.74810000       1.96580000      -0.69710000
H       -0.26460000       1.88770000       1.00430000
H       -0.81390000      -0.45560000       0.33460000
H        0.13080000      -1.54820000      -1.71430000
H        2.57210000      -0.77080000      -2.29180000
H        1.88820000       0.88200000      -2.17470000
H        1.79360000      -3.30310000       2.76240000
