16
Properties=species:S:1:pos:R:3 gdb_11314=T pbc="F F F"
C        0.12800000       1.54990000      -0.05570000
C       -0.03240000       0.03260000       0.05990000
O        0.54580000      -0.61020000      -1.07960000
C        1.46050000      -1.62980000      -0.67950000
C        1.52640000      -1.52210000       0.82210000
C        2.39290000      -2.34480000       1.66660000
O        3.14270000      -3.19320000       1.23600000
C        0.67070000      -0.58320000       1.23630000
H        1.18640000       1.82510000      -0.06030000
H       -0.32570000       1.89650000      -0.98780000
H       -0.36710000       2.05660000       0.77900000
H       -1.11080000      -0.20300000       0.10070000
H        1.10290000      -2.61910000      -1.00080000
H        2.43660000      -1.46690000      -1.15480000
H        2.31780000      -2.13660000       2.75650000
H        0.48640000      -0.28920000       2.26310000
