22
Properties=species:S:1:pos:R:3 gdb_111411=T pbc="F F F"
C        0.17840000       1.52340000       0.11700000
C        0.05950000       0.01790000      -0.14650000
C       -1.33290000      -0.54010000       0.15030000
C       -1.60350000      -2.02510000      -0.09850000
C       -0.88710000      -2.88660000       0.85710000
N       -2.15320000      -2.26010000       1.29990000
C       -1.85120000      -0.80440000       1.60590000
C       -1.01560000      -0.59590000       2.85810000
O       -1.67130000      -1.16150000       3.98040000
H        1.17990000       1.88940000      -0.12850000
H       -0.54030000       2.08690000      -0.48820000
H       -0.01430000       1.76660000       1.16700000
H        0.28680000      -0.18370000      -1.20180000
H        0.82070000      -0.51860000       0.43110000
H       -2.06990000       0.07100000      -0.38070000
H       -2.10610000      -2.42740000      -0.97300000
H       -0.98750000      -3.96040000       0.73250000
H        0.06070000      -2.57500000       1.28540000
H       -2.81640000      -0.31790000       1.77030000
H       -0.00100000      -1.00780000       2.74410000
H       -0.90400000       0.47460000       3.06300000
H       -1.99670000      -2.02640000       3.70280000
