18
Properties=species:S:1:pos:R:3 gdb_22629=T pbc="F F F"
C        0.00340000       1.52480000       0.04340000
C        0.05840000       0.01550000       0.01390000
C       -0.81720000      -0.81660000       0.93250000
C        0.69440000      -0.83540000       1.10060000
C        1.43770000      -1.92200000       0.39400000
C        1.16740000      -1.78430000      -1.04420000
C        0.41420000      -0.69330000      -1.25770000
N        2.17450000      -2.75850000       1.02380000
O        2.76570000      -3.68330000       0.14540000
H        0.95350000       1.96460000      -0.27850000
H       -0.78290000       1.90360000      -0.62010000
H       -0.21150000       1.89040000       1.05200000
H       -1.37480000      -0.28880000       1.70030000
H       -1.31110000      -1.69440000       0.53060000
H        1.11560000      -0.40500000       2.00030000
H        1.51740000      -2.48970000      -1.78330000
H        0.06300000      -0.35160000      -2.22560000
H        3.28230000      -4.22910000       0.74690000
