21
Properties=species:S:1:pos:R:3 gdb_94324=T pbc="F F F"
C        0.25820000       1.57350000      -0.07360000
C       -0.01370000       0.08690000       0.05100000
O        0.79550000      -0.71370000      -0.85340000
C        1.45750000      -1.40440000       0.22760000
C        0.61610000      -0.64130000       1.24400000
O        1.13210000       0.00690000       2.38880000
C        0.10090000      -0.99870000       2.56820000
C       -1.23320000      -0.46030000       3.03390000
C        0.57240000      -2.26830000       3.24150000
H        1.30760000       1.79680000       0.13550000
H        0.02040000       1.91200000      -1.08650000
H       -0.35980000       2.13680000       0.63310000
H       -1.08060000      -0.12880000      -0.10080000
H        1.30490000      -2.49030000       0.18250000
H        2.53270000      -1.18940000       0.26900000
H       -1.49040000       0.46370000       2.51140000
H       -2.02850000      -1.19280000       2.85830000
H       -1.20500000      -0.24810000       4.10820000
H        0.64970000      -2.12060000       4.32420000
H       -0.13470000      -3.08600000       3.06500000
H        1.55400000      -2.56980000       2.86860000
