20
Properties=species:S:1:pos:R:3 gdb_22103=T pbc="F F F"
C        0.04640000       1.60450000      -0.04880000
C        0.03870000       0.06870000      -0.01080000
C       -1.40400000      -0.50420000       0.06580000
C       -2.11100000      -0.15340000       1.34900000
C       -1.64800000      -0.75090000       2.65100000
N       -3.09690000       0.65570000       1.24640000
O       -3.67910000       0.92110000       2.49640000
C        0.70150000      -0.47850000      -1.26020000
O        1.62910000      -1.24480000      -1.27720000
H        1.06820000       1.99420000      -0.02290000
H       -0.43670000       1.97530000      -0.96010000
H       -0.50280000       2.01610000       0.80140000
H        0.62290000      -0.29560000       0.84070000
H       -1.99610000      -0.12660000      -0.77370000
H       -1.35420000      -1.59730000      -0.02270000
H       -1.24300000       0.02330000       3.31180000
H       -2.49500000      -1.19610000       3.18130000
H       -0.88140000      -1.51170000       2.49250000
H       -4.40930000       1.50250000       2.25990000
H        0.24290000      -0.11070000      -2.21030000
