21
Properties=species:S:1:pos:R:3 gdb_102084=T pbc="F F F"
C       -0.06250000       1.57910000      -0.24820000
C       -0.04480000       0.06740000      -0.09050000
C        1.22630000      -0.66020000      -0.45510000
C        0.83190000      -0.51660000       0.99550000
C       -1.35450000      -0.67580000      -0.38750000
C       -2.53340000      -0.18400000       0.44640000
O       -3.62000000      -1.05640000       0.17150000
C       -1.68100000      -0.59010000      -1.87360000
O       -1.27670000      -1.36700000      -2.69860000
H        0.92920000       1.99420000      -0.04480000
H       -0.33910000       1.87940000      -1.26520000
H       -0.76420000       2.05700000       0.44420000
H        1.13460000      -1.63370000      -0.92270000
H        2.06080000      -0.07020000      -0.81860000
H        1.39760000       0.17210000       1.61450000
H        0.48290000      -1.39910000       1.52110000
H       -1.20180000      -1.73820000      -0.17000000
H       -2.26260000      -0.18990000       1.51280000
H       -2.78360000       0.85360000       0.17420000
H       -4.40400000      -0.71920000       0.61470000
H       -2.31220000       0.28110000      -2.16910000
