20
Properties=species:S:1:pos:R:3 gdb_32993=T pbc="F F F"
C       -0.01520000       1.57060000      -0.04160000
C       -0.06200000       0.04570000      -0.03920000
N        0.79640000      -0.49080000      -1.07990000
C        0.86310000      -1.85040000      -1.35480000
C        0.38920000      -2.82170000      -0.45840000
C        0.51880000      -4.17630000      -0.75530000
C        1.10820000      -4.59960000      -1.94170000
C        1.57390000      -3.63780000      -2.83940000
C        1.45570000      -2.28610000      -2.55420000
H        1.00790000       1.92890000       0.10690000
H       -0.38440000       1.97520000      -0.99120000
H       -0.64240000       1.97520000       0.75700000
H        0.28470000      -0.32580000       0.93330000
H       -1.10440000      -0.29820000      -0.15140000
H        0.86650000       0.09690000      -1.89730000
H       -0.07940000      -2.52260000       0.47110000
H        0.14560000      -4.90730000      -0.04450000
H        1.20230000      -5.65570000      -2.16680000
H        2.03490000      -3.94360000      -3.77350000
H        1.82710000      -1.54660000      -3.25870000
