18
Properties=species:S:1:pos:R:3 gdb_74226=T pbc="F F F"
N        0.10670000       1.26070000      -0.68610000
C       -0.02860000       0.04670000      -0.05690000
C       -1.22400000      -0.58250000       0.05890000
C       -1.45500000      -1.93850000       0.54740000
O       -2.58190000      -2.34860000       0.77620000
C       -0.25330000      -2.87860000       0.67720000
C        0.77650000      -2.48290000       1.74280000
O        1.14480000      -1.11060000       1.73990000
C        1.28390000      -0.51040000       0.47770000
H        0.84800000       1.87120000      -0.37860000
H       -0.74040000       1.74120000      -0.94960000
H       -2.12940000      -0.05380000      -0.22870000
H       -0.64010000      -3.87230000       0.91690000
H        0.23690000      -2.94610000      -0.30180000
H        0.37070000      -2.66300000       2.74280000
H        1.67280000      -3.11240000       1.62520000
H        1.73810000      -1.19000000      -0.25990000
H        1.98910000       0.31990000       0.60750000
