15
Properties=species:S:1:pos:R:3 gdb_133646=T pbc="F F F"
F       -0.81290000       0.26120000      -0.23970000
C       -0.06510000       1.32530000       0.11160000
F        1.20620000       0.92270000       0.16370000
F       -0.16990000       2.23530000      -0.86650000
C       -0.54540000       1.90590000       1.43070000
N       -0.54410000       0.88170000       2.45890000
C       -0.90180000       1.37070000       3.78010000
C        0.27920000       2.06950000       4.44340000
O        0.17760000       2.96020000       5.24390000
H        0.14630000       2.70950000       1.70480000
H       -1.53000000       2.36830000       1.24610000
H       -1.14830000       0.11900000       2.17880000
H       -1.77310000       2.04540000       3.81250000
H       -1.13740000       0.50480000       4.41320000
H        1.26550000       1.65950000       4.12730000
