14
Properties=species:S:1:pos:R:3 gdb_43238=T pbc="F F F"
O       -0.04200000      -0.03870000       0.21170000
C       -0.06340000       1.13910000      -0.03230000
C       -1.25960000       2.06440000      -0.09540000
C       -0.69680000       3.28720000      -0.24670000
C       -0.01950000       4.21230000       0.71420000
C        1.21650000       3.31460000       0.95830000
C        1.15630000       2.11350000      -0.05200000
C        0.64670000       3.25290000      -0.96340000
N        1.21600000       4.38160000      -0.09290000
H       -2.14440000       1.81570000       0.47820000
H       -0.35460000       4.93110000       1.45260000
H        1.81680000       3.40070000       1.85790000
H        2.12760000       1.64900000      -0.22610000
H        0.75130000       3.28190000      -2.04450000
