20
Properties=species:S:1:pos:R:3 gdb_106334=T pbc="F F F"
C       -0.03520000       1.52390000       0.04150000
C        0.03240000      -0.00430000      -0.05980000
C        0.74100000      -0.49340000      -1.29660000
C        2.22040000      -0.21180000      -1.72350000
C        1.62650000      -1.12070000      -2.84210000
C        0.99030000      -1.98020000      -1.70790000
C        0.34760000      -0.23110000      -2.78880000
C        2.30250000      -1.59880000      -4.02190000
N        2.84570000      -1.98110000      -4.96880000
H        0.96680000       1.96480000       0.06540000
H       -0.56900000       1.95510000      -0.81170000
H       -0.55700000       1.83250000       0.95180000
H        0.54190000      -0.41250000       0.82280000
H       -0.98280000      -0.42220000      -0.04710000
H        2.46860000       0.81010000      -2.01910000
H        3.00530000      -0.65870000      -1.10820000
H        1.68670000      -2.55370000      -1.09120000
H        0.11340000      -2.57000000      -1.98620000
H       -0.57540000      -0.69540000      -3.14490000
H        0.45900000       0.78950000      -3.16230000
