15
Properties=species:S:1:pos:R:3 gdb_42516=T pbc="F F F"
O        0.36640000       0.33080000      -1.09580000
C        0.35960000       1.36830000      -0.51830000
C       -0.75100000       2.37230000      -0.09620000
C        0.38130000       3.44090000       0.08980000
C        1.48410000       2.32990000      -0.00880000
C        2.07780000       1.91700000       1.24510000
C        2.53400000       1.56430000       2.30030000
C       -1.84810000       2.62520000      -0.99860000
C       -2.73950000       2.83810000      -1.77640000
H       -1.11860000       2.05010000       0.88720000
H        0.42720000       4.13270000      -0.75180000
H        0.35420000       3.99410000       1.02670000
H        2.25180000       2.50730000      -0.76860000
H        2.95290000       1.25240000       3.22510000
H       -3.53270000       3.02130000      -2.45830000
