12
Properties=species:S:1:pos:R:3 gdb_909=T pbc="F F F"
O        0.00320000      -0.08680000       0.00310000
C       -0.01340000       1.13980000       0.01050000
C       -1.24960000       1.93040000       0.03040000
C       -1.23280000       3.28270000       0.03650000
N       -0.05190000       3.97860000       0.02390000
C        1.14730000       3.31520000       0.00430000
C        1.20080000       1.96380000      -0.00280000
H       -2.19260000       1.39770000       0.04040000
H       -2.13040000       3.88990000       0.05140000
H       -0.06560000       4.98390000       0.02870000
H        2.02810000       3.94660000      -0.00490000
H        2.15790000       1.45700000      -0.01850000
