17
Properties=species:S:1:pos:R:3 gdb_99362=T pbc="F F F"
O       -0.10150000       1.21580000       0.57510000
C       -0.04570000      -0.07790000       0.05660000
C       -1.43570000      -0.66070000      -0.14820000
O       -2.40990000      -0.01960000       0.18770000
C       -1.56720000      -2.03810000      -0.79860000
N       -2.90320000      -2.60060000      -0.80940000
C       -3.37110000      -3.01670000       0.51400000
C       -4.69830000      -3.63140000       0.42190000
N       -5.75210000      -4.09930000       0.35940000
H       -1.04380000       1.39570000       0.71950000
H        0.48970000      -0.09860000      -0.90690000
H        0.50790000      -0.75900000       0.72650000
H       -1.21080000      -1.94120000      -1.83380000
H       -0.87330000      -2.73700000      -0.31380000
H       -3.55120000      -1.91390000      -1.18330000
H       -2.67530000      -3.76710000       0.90960000
H       -3.42430000      -2.20020000       1.25080000
