17
Properties=species:S:1:pos:R:3 gdb_132509=T pbc="F F F"
C       -0.04160000       1.50040000       0.03020000
C       -0.02220000      -0.00570000      -0.02360000
C       -0.06600000      -0.69860000      -1.23320000
C       -0.04520000      -2.09050000      -1.21920000
C        0.01850000      -2.71710000       0.00890000
F        0.04110000      -4.05530000       0.08150000
C        0.06040000      -1.97560000       1.19210000
C        0.12980000      -2.66320000       2.52800000
N        0.03950000      -0.64220000       1.15640000
H        0.85560000       1.87730000       0.53160000
H       -0.09230000       1.93970000      -0.96900000
H       -0.90140000       1.85180000       0.60950000
H       -0.11560000      -0.16060000      -2.17320000
H       -0.07710000      -2.67990000      -2.12840000
H        1.02230000      -3.29390000       2.60310000
H        0.15410000      -1.91220000       3.31810000
H       -0.73390000      -3.31930000       2.68130000
