16
Properties=species:S:1:pos:R:3 gdb_77843=T pbc="F F F"
C       -0.26150000       1.59680000       0.00710000
C        0.03830000       0.10430000      -0.03180000
C        0.70390000      -0.58870000      -1.23940000
C        2.16110000      -0.25180000      -1.38970000
C        2.77230000       1.01270000      -1.06190000
N        3.29040000       2.01910000      -0.82410000
C        1.74210000      -1.27810000      -0.33540000
C        1.13750000      -0.55430000       0.85080000
O        1.33040000      -0.59720000       2.02860000
H        0.61190000       2.20220000      -0.23940000
H       -1.06480000       1.84770000      -0.69290000
H       -0.59260000       1.87640000       1.01180000
H       -0.87400000      -0.45840000       0.21140000
H        0.16980000      -1.03460000      -2.06850000
H        2.62820000      -0.71910000      -2.25260000
H        2.15700000      -2.27790000      -0.35720000
