15
Properties=species:S:1:pos:R:3 gdb_10452=T pbc="F F F"
O       -0.41400000       0.55060000      -1.06140000
C       -0.04790000       1.07830000      -0.03980000
C        1.20840000       1.87530000       0.08130000
C        1.48130000       2.50300000       1.44270000
C        1.71710000       1.50810000       2.49250000
N        1.89740000       0.71160000       3.30980000
C        2.37760000       1.40080000      -0.77290000
C        1.63560000       2.62870000      -1.17340000
H       -0.64680000       0.99810000       0.89430000
H        2.35810000       3.15600000       1.38420000
H        0.64180000       3.13850000       1.75070000
H        3.36870000       1.50080000      -0.34420000
H        2.20310000       0.49660000      -1.34400000
H        0.95620000       2.55570000      -2.01460000
H        2.10450000       3.59620000      -1.03090000
