17
Properties=species:S:1:pos:R:3 gdb_132727=T pbc="F F F"
C        0.07620000       1.49730000       0.05580000
C        0.03100000      -0.00800000       0.00340000
C       -0.01010000      -0.67590000      -1.23620000
C       -0.01140000       0.05610000      -2.55220000
C       -0.05010000      -2.06400000      -1.18030000
F       -0.09040000      -2.76560000      -2.31820000
C       -0.04940000      -2.74750000       0.02580000
C       -0.00670000      -1.97860000       1.18000000
N        0.03260000      -0.64410000       1.18110000
H        0.95850000       1.89110000      -0.46250000
H       -0.79980000       1.94280000      -0.43030000
H        0.10470000       1.82040000       1.09660000
H        0.88570000       0.67530000      -2.66410000
H       -0.04700000      -0.64360000      -3.38770000
H       -0.87310000       0.72800000      -2.63330000
H       -0.08080000      -3.82960000       0.04830000
H       -0.00410000      -2.46000000       2.15470000
