20
Properties=species:S:1:pos:R:3 gdb_60926=T pbc="F F F"
C        0.32820000       1.44870000      -0.28200000
C       -0.00940000      -0.01610000      -0.48330000
C        0.51910000      -0.85910000      -1.60860000
C        1.48390000      -0.33530000      -2.66710000
O        2.26810000      -1.37890000      -3.18280000
C        0.68940000       0.32640000      -3.77680000
O        0.72850000      -0.07880000      -4.91360000
N        0.92430000      -1.11130000      -0.22890000
C        2.29090000      -0.86220000       0.20360000
H        1.32190000       1.72790000      -0.63590000
H       -0.40090000       2.07590000      -0.80650000
H        0.27230000       1.70570000       0.78140000
H       -1.02010000      -0.25280000      -0.14920000
H       -0.12280000      -1.63980000      -2.01760000
H        2.13020000       0.44600000      -2.23800000
H        2.06460000      -1.41390000      -4.13120000
H        0.06270000       1.19250000      -3.48470000
H        2.74880000       0.06910000      -0.15960000
H        2.30960000      -0.83660000       1.29760000
H        2.91590000      -1.69430000      -0.13210000
