15
Properties=species:S:1:pos:R:3 gdb_4080=T pbc="F F F"
O       -0.05080000       1.35830000      -0.00970000
N        0.04360000      -0.03940000      -0.03330000
C       -1.10700000      -0.60490000      -0.03760000
C       -1.13100000      -2.11630000      -0.01830000
O       -2.16780000      -2.61050000      -0.85020000
C       -3.44930000      -2.17760000      -0.44350000
C       -3.51670000      -0.70430000      -0.15480000
C       -2.41430000       0.04080000      -0.00880000
H        0.87480000       1.62300000       0.00360000
H       -0.19070000      -2.52110000      -0.39550000
H       -1.27120000      -2.47020000       1.01800000
H       -4.13220000      -2.43590000      -1.26100000
H       -3.79180000      -2.74280000       0.44520000
H       -4.50750000      -0.26500000      -0.07510000
H       -2.45800000       1.11000000       0.15410000
