18
Properties=species:S:1:pos:R:3 gdb_70104=T pbc="F F F"
O       -0.11560000       1.35220000       0.00390000
C        0.03450000      -0.03540000      -0.00000000
C       -0.53630000      -0.79410000       1.15560000
C        0.97590000      -0.79360000       0.91870000
C        1.51610000      -1.90970000       0.08790000
C        1.02010000      -1.89140000      -1.15480000
C        0.08750000      -0.74710000      -1.34730000
C       -1.08150000      -0.73310000      -2.26550000
N        0.12950000       0.03190000      -2.60290000
H        0.73740000       1.74480000      -0.21490000
H       -0.89200000      -0.18460000       1.97950000
H       -1.08890000      -1.71000000       0.97460000
H        1.60000000      -0.28610000       1.64650000
H        2.20720000      -2.64890000       0.47580000
H        1.23060000      -2.60410000      -1.94230000
H       -1.27870000      -1.58620000      -2.90940000
H       -1.96600000      -0.19280000      -1.93580000
H       -0.03330000       1.00960000      -2.36410000
