23
Properties=species:S:1:pos:R:3 gdb_96107=T pbc="F F F"
C       -0.04290000       1.52230000      -0.02040000
C       -0.02460000       0.00640000       0.01320000
C       -0.86180000      -0.68410000       1.05970000
C        0.64480000      -0.68810000       1.18870000
C        1.43300000      -1.98670000       1.01120000
C        1.72410000      -2.32490000      -0.45960000
C        0.48170000      -2.11400000      -1.32970000
C        0.08560000      -0.63310000      -1.36020000
O       -1.16460000      -0.42980000      -2.02020000
H        0.88890000       1.92170000      -0.43950000
H       -0.87120000       1.88060000      -0.63960000
H       -0.16250000       1.94040000       0.98410000
H       -1.44050000      -0.06150000       1.73420000
H       -1.34880000      -1.61830000       0.79980000
H        1.04580000      -0.01540000       1.94190000
H        2.37770000      -1.91500000       1.56030000
H        0.87990000      -2.81730000       1.46850000
H        2.53160000      -1.68020000      -0.83230000
H        2.08530000      -3.35550000      -0.54370000
H        0.66790000      -2.44990000      -2.35800000
H       -0.35980000      -2.70980000      -0.95530000
H        0.87910000      -0.09120000      -1.90560000
H       -1.07480000      -0.75160000      -2.92320000
