18
Properties=species:S:1:pos:R:3 gdb_52094=T pbc="F F F"
O       -0.24980000       0.22660000       0.53490000
C        0.05040000       1.11560000      -0.21540000
C        1.34800000       1.89860000      -0.10830000
O        1.36690000       2.85860000      -1.14270000
C        2.49810000       3.65360000      -1.17460000
C        3.98710000       3.27530000      -1.39640000
N        4.01680000       4.80890000      -1.31350000
C        2.75500000       4.76410000      -2.19650000
C        3.05080000       4.65850000      -0.12860000
H       -0.60030000       1.44160000      -1.05610000
H        1.39810000       2.36520000       0.88780000
H        2.19210000       1.19550000      -0.18330000
H        4.53470000       2.78930000      -0.58540000
H        4.27930000       2.88630000      -2.37480000
H        2.95700000       4.47610000      -3.23070000
H        2.14850000       5.67050000      -2.13600000
H        2.46920000       5.56050000       0.07620000
H        3.53160000       4.27100000       0.77280000
