19
Properties=species:S:1:pos:R:3 gdb_92207=T pbc="F F F"
C       -0.00010000       1.56810000      -0.02610000
C        0.04720000       0.04880000       0.02730000
O        0.69820000      -0.45610000      -1.14940000
C        1.60620000      -1.49640000      -0.82880000
C        3.07580000      -1.02200000      -0.58400000
C        2.81750000      -1.08210000       0.93400000
O        2.11480000       0.08760000       1.41850000
C        0.81910000      -0.53310000       1.21000000
C        1.47410000      -1.82030000       0.68970000
H        1.01070000       1.97460000       0.04870000
H       -0.45010000       1.89700000      -0.96620000
H       -0.60060000       1.96320000       0.80000000
H       -0.97770000      -0.35750000       0.06180000
H        1.48210000      -2.31020000      -1.54720000
H        3.79800000      -1.78350000      -0.89690000
H        3.35190000      -0.05160000      -1.00100000
H        3.61290000      -1.39160000       1.61450000
H        0.23630000      -0.56070000       2.13620000
H        1.18830000      -2.80640000       1.04560000
