19
Properties=species:S:1:pos:R:3 gdb_103613=T pbc="F F F"
C        0.12400000       1.48910000       0.10810000
C        0.01810000      -0.03960000       0.03610000
C       -1.41710000      -0.54860000       0.04630000
O       -2.19950000      -0.06330000      -1.04120000
C       -1.67800000      -2.07850000       0.14700000
C       -2.86960000      -1.81770000       1.14420000
O       -3.09860000      -2.63720000       2.24760000
C       -2.20810000      -0.46050000       1.38470000
O       -2.07950000       0.18840000       2.38830000
H        1.17110000       1.80420000       0.11880000
H       -0.34160000       1.96570000      -0.76210000
H       -0.35540000       1.87180000       1.01370000
H        0.50570000      -0.41140000      -0.87340000
H        0.54760000      -0.48310000       0.88720000
H       -2.25130000       0.89590000      -0.96660000
H       -1.93880000      -2.56210000      -0.79420000
H       -0.85410000      -2.60160000       0.63780000
H       -3.79490000      -1.71620000       0.56710000
H       -2.65110000      -2.23860000       3.00420000
