20
Properties=species:S:1:pos:R:3 gdb_97251=T pbc="F F F"
C        0.83570000       1.52080000       0.33230000
N        0.43810000       0.12770000       0.24580000
C        0.14830000      -0.35350000      -0.89890000
O        0.24430000       0.43170000      -2.00930000
C       -0.38940000       0.08280000      -3.23910000
C        0.25520000      -1.12040000      -3.92150000
C       -0.31180000      -2.45520000      -3.43850000
C       -0.42020000      -2.63590000      -1.95390000
C       -0.24670000      -1.77070000      -0.94710000
H        1.87040000       1.65720000      -0.01170000
H        0.20860000       2.18430000      -0.27710000
H        0.78740000       1.84040000       1.37670000
H       -1.46350000      -0.08110000      -3.07850000
H       -0.27630000       0.97940000      -3.85400000
H        0.10780000      -1.04000000      -5.00450000
H        1.33530000      -1.06670000      -3.74380000
H       -1.31730000      -2.59750000      -3.86530000
H        0.28260000      -3.28270000      -3.84890000
H       -0.70550000      -3.64510000      -1.66010000
H       -0.37590000      -2.14320000       0.06370000
