16
Properties=species:S:1:pos:R:3 gdb_100178=T pbc="F F F"
N        0.05860000       1.18210000      -0.89700000
C        0.10970000       0.18330000       0.01270000
O        1.07080000      -0.09470000       0.70920000
C       -1.15260000      -0.66710000       0.10850000
O       -2.28260000       0.03380000      -0.39880000
C       -0.97540000      -1.98740000      -0.66930000
O       -2.22300000      -2.65800000      -0.73700000
C       -1.43730000      -0.95150000       1.59470000
O       -1.83030000      -2.01900000       1.99890000
H        0.83960000       1.81250000      -0.97550000
H       -0.82390000       1.40660000      -1.32710000
H       -2.88720000      -0.66500000      -0.69960000
H       -0.67860000      -1.76340000      -1.69810000
H       -0.19430000      -2.59420000      -0.19940000
H       -2.40080000      -2.96070000       0.16540000
H       -1.33000000      -0.08110000       2.27090000
