20
Properties=species:S:1:pos:R:3 gdb_69056=T pbc="F F F"
C       -0.08820000       1.50990000       0.22930000
C        0.12160000       0.03880000       0.04960000
C        0.38970000      -0.70380000      -1.26890000
C        1.23940000      -1.75030000      -0.46950000
C        0.93140000      -0.96170000       0.81250000
C        1.79550000      -0.81810000       2.03690000
C        1.67380000      -2.01960000       2.95850000
O        1.36520000      -1.95600000       4.12000000
N       -0.55620000      -0.95940000       0.91940000
H        0.65800000       2.08640000      -0.32800000
H       -1.07890000       1.81130000      -0.13140000
H       -0.01830000       1.79730000       1.28430000
H       -0.50070000      -1.08220000      -1.77650000
H        0.99440000      -0.12410000      -1.97070000
H        0.88200000      -2.78270000      -0.48380000
H        2.29750000      -1.72450000      -0.74290000
H        2.84820000      -0.73290000       1.73040000
H        1.53440000       0.07670000       2.61160000
H        1.88690000      -2.99870000       2.47270000
H       -0.78830000      -0.48090000       1.79180000
