19
Properties=species:S:1:pos:R:3 gdb_74637=T pbc="F F F"
C       -0.12470000       1.50140000       0.10370000
C        0.01360000       0.01820000      -0.03390000
C       -0.02940000      -0.69240000      -1.18040000
C       -0.01610000      -2.16260000      -0.85160000
C        1.08520000      -3.28080000      -0.76860000
C        2.07210000      -2.29400000      -0.15090000
C        0.67370000      -2.10820000       0.50960000
C        0.20990000      -0.86450000       1.22580000
O        0.57700000      -3.58750000       0.62040000
H        0.76370000       1.94200000       0.57370000
H       -0.27190000       1.98250000      -0.86710000
H       -0.97620000       1.76100000       0.74580000
H       -0.19190000      -0.24810000      -2.15680000
H       -1.01650000      -2.60720000      -0.82710000
H        1.25470000      -4.15080000      -1.40430000
H        2.82510000      -2.74250000       0.49770000
H        2.45800000      -1.48520000      -0.77320000
H        0.93440000      -0.44040000       1.92890000
H       -0.74040000      -1.00080000       1.75880000
