19
Properties=species:S:1:pos:R:3 gdb_91854=T pbc="F F F"
C        0.20530000       1.59560000       0.12770000
C        0.09310000       0.08680000       0.02660000
C        0.70080000      -0.55250000      -1.24050000
C        1.18730000      -1.90920000      -0.75060000
C        2.49070000      -1.94560000       0.05210000
C        1.20400000      -1.79560000       0.78010000
O        0.80960000      -0.50710000       1.13300000
C        0.70910000      -3.14830000      -1.39130000
O       -0.04390000      -3.19400000      -2.33480000
H        1.25090000       1.91010000       0.05310000
H       -0.36110000       2.07120000      -0.67890000
H       -0.19400000       1.94910000       1.08220000
H       -0.96340000      -0.21340000       0.10620000
H       -0.03830000      -0.68480000      -2.03360000
H        1.52160000       0.05770000      -1.63260000
H        3.00060000      -2.90290000       0.11220000
H        3.13600000      -1.07770000      -0.02490000
H        0.82580000      -2.59130000       1.41620000
H        1.09920000      -4.08220000      -0.92260000
