17
Properties=species:S:1:pos:R:3 gdb_133708=T pbc="F F F"
C       -0.05080000       1.48450000      -0.19180000
C        0.08000000      -0.00640000       0.00250000
N        1.43060000      -0.59260000      -0.06660000
C        0.69720000      -0.63730000       1.20630000
C        1.27230000       0.14070000       2.37050000
C        0.12140000      -1.97610000       1.61890000
F        1.02870000      -2.71970000       2.27400000
F       -0.93190000      -1.82590000       2.43740000
F       -0.28930000      -2.70200000       0.56210000
H        0.80430000       2.02160000       0.22230000
H       -0.10370000       1.71900000      -1.26000000
H       -0.96470000       1.85980000       0.28060000
H       -0.71590000      -0.58680000      -0.45930000
H        1.39960000      -1.49800000      -0.52930000
H        1.70340000       1.07990000       2.02480000
H        0.49930000       0.35730000       3.11380000
H        2.06380000      -0.43630000       2.85660000
