17
Properties=species:S:1:pos:R:3 gdb_119669=T pbc="F F F"
C        0.02050000       1.33040000      -0.00160000
O        0.03110000      -0.07470000      -0.10750000
C       -1.22720000      -0.64930000       0.15470000
C       -1.11150000      -2.13350000       0.06440000
O       -0.40990000      -2.90450000       1.08480000
C       -0.85410000      -3.93490000       0.16100000
C       -2.20490000      -3.22980000      -0.17640000
O       -2.00850000      -3.26970000      -1.61600000
C       -0.65680000      -3.05810000      -1.11370000
H        1.03160000       1.67950000      -0.22250000
H       -0.68010000       1.78870000      -0.71750000
H       -0.25770000       1.66090000       1.01140000
H       -1.59330000      -0.37030000       1.15700000
H       -1.98000000      -0.31880000      -0.58160000
H       -0.61300000      -4.97610000       0.36960000
H       -3.20850000      -3.35090000       0.23120000
H        0.17000000      -2.96940000      -1.81620000
