16
Properties=species:S:1:pos:R:3 gdb_97097=T pbc="F F F"
C       -0.07310000       1.40440000      -0.03720000
N       -0.20870000      -0.03170000      -0.24160000
C        0.57280000      -0.62240000      -1.01230000
O        1.62780000      -0.17500000      -1.78550000
C        1.94910000      -1.53030000      -2.21960000
C        0.76440000      -2.09710000      -1.39470000
O        1.22500000      -2.91540000      -0.34190000
C       -0.33000000      -2.69680000      -2.14650000
C       -1.23990000      -3.19700000      -2.75100000
H        0.78590000       1.84980000      -0.55170000
H       -0.98650000       1.90070000      -0.38240000
H        0.01380000       1.60310000       1.03610000
H        1.87550000      -1.62930000      -3.30300000
H        2.92250000      -1.85130000      -1.84470000
H        0.50350000      -2.99680000       0.29360000
H       -2.04670000      -3.63690000      -3.28410000
