19
Properties=species:S:1:pos:R:3 gdb_83665=T pbc="F F F"
C        0.22430000       1.64490000      -0.11090000
C        0.12850000       0.13190000      -0.00880000
C        0.66730000      -0.77480000      -1.14230000
C        1.96160000      -0.37970000      -1.89390000
C        2.71930000      -1.30200000      -0.90110000
N        1.45580000      -1.62020000      -0.15420000
C        1.10120000      -0.65350000       0.94890000
C        2.19520000       0.11460000       1.53140000
N        3.06610000       0.72900000       1.98160000
H        1.24990000       1.98480000      -0.27800000
H       -0.39560000       2.01120000      -0.93590000
H       -0.13030000       2.11920000       0.80970000
H       -0.89970000      -0.15150000       0.23210000
H       -0.08840000      -1.29430000      -1.73760000
H        1.99370000      -0.69310000      -2.93910000
H        2.22850000       0.67830000      -1.84480000
H        3.12480000      -2.21200000      -1.35110000
H        3.50160000      -0.83610000      -0.29680000
H        0.59090000      -1.17260000       1.76630000
