21
Properties=species:S:1:pos:R:3 gdb_41228=T pbc="F F F"
C       -0.01180000       1.51690000      -0.22860000
C        1.52720000       1.47680000       0.10970000
C        1.22840000       0.21220000       0.95270000
C        1.75490000      -1.21960000       1.13730000
C        0.39800000      -1.78750000       1.62860000
C       -0.28750000      -0.70010000       2.43360000
C        0.63660000       0.50390000       2.36200000
C       -0.76170000      -0.96330000       1.02080000
C       -0.02830000      -0.01440000       0.09420000
H       -0.57790000       2.13630000       0.46880000
H       -0.28720000       1.79880000      -1.24700000
H        2.12190000       1.26250000      -0.78300000
H        1.96160000       2.33730000       0.62490000
H        2.09550000      -1.67400000       0.20170000
H        2.53910000      -1.33800000       1.89310000
H        0.26960000      -2.83580000       1.86520000
H       -0.90180000      -0.92440000       3.29630000
H        1.41830000       0.49380000       3.13040000
H        0.10680000       1.45730000       2.43020000
H       -1.71330000      -1.43630000       0.81320000
H        0.24260000      -0.53760000      -0.83150000
