16
Properties=species:S:1:pos:R:3 gdb_49408=T pbc="F F F"
O       -0.17020000       0.00480000       0.23840000
C       -0.05000000       1.15690000      -0.09480000
C        1.22270000       1.94530000      -0.00270000
C        1.46070000       2.87290000       1.23020000
C        1.52670000       1.91950000       2.44520000
C        3.04930000       1.84190000       2.43460000
C        2.25570000       0.75290000       1.77830000
N        2.48920000       1.22930000       0.37520000
C        2.97580000       2.52740000       1.05330000
H       -0.91890000       1.73810000      -0.48430000
H        1.38340000       2.49840000      -0.93710000
H        1.04490000       3.87360000       1.33780000
H        0.83490000       1.80300000       3.26700000
H        3.78410000       1.83060000       3.22680000
H        2.11000000      -0.28680000       2.03080000
H        3.71800000       3.13600000       0.54090000
