16
Properties=species:S:1:pos:R:3 gdb_19573=T pbc="F F F"
C        0.02490000       1.56260000       0.01060000
O        1.17910000       0.69020000      -0.00590000
C       -0.09620000       0.11130000       0.00340000
C       -0.54970000      -0.97110000       0.98840000
C       -2.08150000      -0.97610000       0.80150000
C       -2.09710000      -0.96710000      -0.76740000
C       -0.56930000      -0.95970000      -0.98470000
O       -0.11800000      -1.95480000      -0.00820000
H       -0.11910000       2.11990000       0.93510000
H       -0.13740000       2.13050000      -0.90440000
H       -0.11460000      -1.10680000       1.97740000
H       -2.52800000      -1.87930000       1.22120000
H       -2.56860000      -0.10380000       1.24560000
H       -2.55190000      -1.86550000      -1.18860000
H       -2.59280000      -0.08980000      -1.19170000
H       -0.15400000      -1.08400000      -1.98360000
