18
Properties=species:S:1:pos:R:3 gdb_45253=T pbc="F F F"
O        0.11300000       0.23770000      -1.07380000
C        0.05380000       1.20410000      -0.37340000
C       -1.08170000       1.88120000       0.41800000
C       -0.10100000       3.04980000       0.75400000
C        0.36290000       3.26540000       2.20880000
C        1.65100000       2.45970000       2.35030000
C        1.60710000       0.99880000       2.10850000
N        2.08280000       1.90540000       1.04370000
C        1.07450000       2.29450000       0.03990000
H       -1.94900000       2.14160000      -0.19580000
H       -1.43840000       1.29820000       1.27440000
H       -0.39780000       3.98520000       0.27860000
H        0.57470000       4.32430000       2.38480000
H       -0.39640000       2.96600000       2.93910000
H        2.44130000       2.87310000       2.97140000
H        2.38060000       0.35310000       2.51400000
H        0.63790000       0.51660000       2.01650000
H        1.57740000       2.79690000      -0.79080000
