16
Properties=species:S:1:pos:R:3 gdb_117021=T pbc="F F F"
C       -0.34780000       1.38490000       0.40460000
C        0.32580000       0.14210000      -0.18050000
N        1.11950000      -0.57780000       0.80080000
C        0.82100000      -1.81990000       1.23470000
O       -0.10720000      -2.51830000       0.87150000
C        1.82810000      -2.30790000       2.29980000
O        2.74790000      -1.60790000       2.67050000
C        1.59220000      -3.63560000       2.81020000
C        1.42960000      -4.73950000       3.26070000
H        0.39160000       2.08940000       0.80040000
H       -0.92290000       1.90260000      -0.36910000
H       -1.02800000       1.11260000       1.21650000
H       -0.41910000      -0.56690000      -0.54890000
H        0.96670000       0.42160000      -1.02580000
H        1.92620000      -0.14410000       1.22860000
H        1.27720000      -5.71630000       3.65220000
