14
Properties=species:S:1:pos:R:3 gdb_29989=T pbc="F F F"
C        0.00620000       1.46480000       0.01420000
N       -0.02670000       0.01670000       0.04230000
C       -0.14990000      -0.83580000      -1.03960000
N       -0.15250000      -2.12860000      -0.73100000
C       -0.02440000      -2.08240000       0.61230000
C        0.05520000      -0.82350000       1.12740000
N        0.18400000      -0.84620000       2.49580000
C        0.17520000      -2.12860000       2.73570000
O        0.05210000      -2.96310000       1.65020000
H        0.94760000       1.83800000       0.42750000
H       -0.08330000       1.79930000      -1.02080000
H       -0.82190000       1.88150000       0.59460000
H       -0.23500000      -0.44240000      -2.04170000
H        0.25390000      -2.61560000       3.69420000
