21
Properties=species:S:1:pos:R:3 gdb_90616=T pbc="F F F"
C       -0.10580000       1.52960000       0.01190000
C       -0.00860000       0.00870000      -0.00310000
C        1.08130000      -0.57790000      -0.96790000
C        1.82940000      -1.19290000       0.24990000
C        0.75530000      -0.61170000       1.21460000
C        0.42000000      -2.04110000       1.69570000
C        0.01650000      -2.95070000       0.55030000
C        1.46470000      -2.61590000       0.74340000
O        2.41650000      -3.58560000       1.01370000
H        0.87550000       1.98770000       0.18400000
H       -0.48680000       1.91280000      -0.94140000
H       -0.77720000       1.87580000       0.80590000
H       -1.00610000      -0.41570000      -0.15360000
H        0.73040000      -1.28590000      -1.72430000
H        1.65550000       0.20310000      -1.47480000
H        2.88620000      -0.96020000       0.38150000
H        1.03470000       0.07770000       2.01280000
H        0.18880000      -2.31500000       2.71830000
H       -0.23500000      -3.95620000       0.87460000
H       -0.56890000      -2.59980000      -0.29440000
H        2.48250000      -4.16710000       0.24810000
