17
Properties=species:S:1:pos:R:3 gdb_70005=T pbc="F F F"
O       -0.17840000       1.36150000       0.11470000
C       -0.07510000      -0.02100000      -0.00880000
C       -0.52270000      -0.70850000      -1.27820000
C       -1.30820000      -0.88540000       0.00230000
C       -0.86610000      -2.00150000       0.96850000
O        0.10700000      -2.85170000       0.34540000
C        1.33500000      -2.10170000       0.42990000
C        0.83280000      -0.76900000       1.00390000
O       -0.12950000      -1.29310000       1.95030000
H        0.47560000       1.76590000      -0.46530000
H       -0.97230000      -0.05070000      -2.01620000
H        0.01080000      -1.55830000      -1.68490000
H       -2.29870000      -0.45830000       0.10360000
H       -1.64940000      -2.60780000       1.41980000
H        2.02630000      -2.59630000       1.12050000
H        1.79820000      -2.02070000      -0.55790000
H        1.56360000      -0.13820000       1.50540000
