20
Properties=species:S:1:pos:R:3 gdb_22453=T pbc="F F F"
C       -0.03410000       1.52030000       0.17160000
C        0.01580000       0.00520000      -0.04220000
C       -1.40480000      -0.59410000      -0.20070000
O       -2.18010000      -0.48940000       0.97950000
C        0.85550000      -0.42530000      -1.22140000
C        1.31100000      -1.87280000      -1.31570000
O        0.75340000      -2.54620000      -2.43030000
N        1.11250000       0.44200000      -2.12410000
O        1.86840000      -0.12180000      -3.18050000
H        0.96870000       1.93470000       0.30180000
H       -0.48910000       2.02480000      -0.68550000
H       -0.61210000       1.75720000       1.07070000
H        0.44550000      -0.46690000       0.85270000
H       -1.89830000      -0.11080000      -1.05790000
H       -1.34110000      -1.66260000      -0.42620000
H       -2.42970000       0.43240000       1.09270000
H        2.41160000      -1.88830000      -1.34030000
H        0.99160000      -2.42320000      -0.42700000
H        1.04820000      -2.05350000      -3.20600000
H        1.98250000       0.62740000      -3.77390000
