17
Properties=species:S:1:pos:R:3 gdb_51953=T pbc="F F F"
O       -0.26810000       0.19020000       0.34510000
C        0.13160000       1.27080000       0.00450000
C        1.55010000       1.54150000      -0.47810000
N        1.60090000       2.56210000      -1.50230000
C        2.14540000       3.79460000      -1.27650000
O        2.62160000       4.12260000      -0.20040000
C        2.12650000       4.73020000      -2.44780000
C        1.75380000       6.14760000      -2.15520000
N        3.13830000       5.79510000      -2.44990000
H       -0.51720000       2.17640000       0.02250000
H        2.12750000       1.92920000       0.37040000
H        2.00370000       0.60190000      -0.80850000
H        1.25140000       2.34710000      -2.42210000
H        1.89670000       4.30750000      -3.42280000
H        1.24510000       6.72520000      -2.92140000
H        1.48570000       6.37760000      -1.12830000
H        3.64370000       5.71720000      -1.56650000
