19
Properties=species:S:1:pos:R:3 gdb_101509=T pbc="F F F"
C        0.07600000       1.53990000       0.02960000
C       -0.02940000       0.01610000       0.01350000
N       -1.41150000      -0.46720000      -0.03330000
C       -2.09070000      -0.13260000      -1.28000000
C       -1.46020000      -1.90240000       0.23230000
C       -2.81390000      -2.38840000       0.47980000
C       -3.92630000      -2.81240000       0.68460000
C       -5.18460000      -3.28900000       0.91660000
N       -6.25520000      -3.69530000       1.11210000
H        1.11420000       1.83560000       0.20750000
H       -0.23200000       1.98910000      -0.91840000
H       -0.54550000       1.95780000       0.82670000
H        0.56820000      -0.39000000      -0.82700000
H        0.42000000      -0.37560000       0.93340000
H       -1.58480000      -0.55550000      -2.16900000
H       -3.11410000      -0.51490000      -1.25510000
H       -2.14450000       0.95090000      -1.39950000
H       -1.02040000      -2.50720000      -0.58790000
H       -0.85600000      -2.11110000       1.12390000
