17
Properties=species:S:1:pos:R:3 gdb_105714=T pbc="F F F"
C       -0.08180000       1.54550000       0.00430000
C        0.11600000       0.02970000       0.01570000
C        0.76690000      -0.51200000       1.30880000
C        1.01230000      -2.05910000       1.25170000
O        2.44260000      -2.19340000       1.39160000
C        2.91810000      -0.93650000       1.50620000
N        2.12760000       0.05490000       1.48660000
C       -0.05980000      -0.16170000       2.47730000
N       -0.73190000       0.08290000       3.38480000
H        0.87140000       2.06050000       0.14330000
H       -0.51340000       1.86350000      -0.94890000
H       -0.75910000       1.86130000       0.80340000
H       -0.84320000      -0.48390000      -0.12240000
H        0.76750000      -0.27610000      -0.81100000
H        0.53050000      -2.60740000       2.06260000
H        0.71640000      -2.48640000       0.29020000
H        3.99560000      -0.87130000       1.60800000
