19
Properties=species:S:1:pos:R:3 gdb_41086=T pbc="F F F"
C       -0.01640000       1.45300000      -0.25620000
O        1.36510000       1.64410000       0.23460000
C        1.20030000       0.39400000       0.87580000
C        2.01090000      -0.75840000       1.57710000
C        1.56310000      -0.20770000       2.95320000
C        0.32140000       0.28670000       2.18860000
C       -0.32970000      -0.85590000       1.32160000
C        0.89940000      -1.83530000       1.33840000
C        0.04330000      -0.08570000       0.02310000
H       -0.72520000       2.03680000       0.33820000
H       -0.08830000       1.72850000      -1.31030000
H        3.03910000      -1.03040000       1.34610000
H        1.45160000      -0.92390000       3.77330000
H        2.16610000       0.64250000       3.28420000
H       -0.30810000       1.09950000       2.54270000
H       -1.30860000      -1.28580000       1.53390000
H        1.01020000      -2.38290000       0.39840000
H        0.85880000      -2.55450000       2.16120000
H        0.20420000      -0.66780000      -0.88750000
