15
Properties=species:S:1:pos:R:3 gdb_43574=T pbc="F F F"
N       -0.00610000       1.18200000       0.36270000
C       -0.01080000      -0.02890000       0.02080000
O        1.11800000      -0.72750000      -0.37680000
C        0.75280000      -1.94970000      -1.03590000
C        1.66340000      -3.01930000      -0.60270000
N        2.36080000      -3.88220000      -0.28290000
C       -0.71220000      -2.20590000      -0.69230000
C       -1.04410000      -2.21610000       0.76660000
C       -1.18710000      -0.93280000      -0.02970000
H        0.92780000       1.58480000       0.27410000
H        0.87320000      -1.81530000      -2.11840000
H       -1.31110000      -2.75420000      -1.40710000
H       -1.96520000      -2.70570000       1.05880000
H       -0.23830000      -2.29220000       1.48920000
H       -2.16120000      -0.49540000      -0.19500000
