21
Properties=species:S:1:pos:R:3 gdb_93591=T pbc="F F F"
C       -0.01000000       1.57820000      -0.00590000
C        0.01850000       0.04810000      -0.00540000
C        0.70080000      -0.52160000      -1.25700000
C        0.60940000      -2.05140000      -1.30350000
C        0.95350000      -2.68980000       0.03190000
C        1.00590000      -1.97620000       1.16860000
C        0.71090000      -0.50500000       1.25150000
C        1.21420000      -4.08960000       0.02250000
C        1.42530000      -5.27460000      -0.04270000
H        1.00600000       1.98920000      -0.04500000
H       -0.55860000       1.96470000      -0.87120000
H       -0.49100000       1.96900000       0.89740000
H       -1.01920000      -0.31610000       0.00140000
H        0.25360000      -0.09590000      -2.16250000
H        1.75660000      -0.21740000      -1.25600000
H       -0.40250000      -2.36470000      -1.59620000
H        1.27630000      -2.45290000      -2.07450000
H        1.27620000      -2.48130000       2.09190000
H        1.65100000       0.04290000       1.42750000
H        0.09550000      -0.30600000       2.13910000
H        1.61350000      -6.31870000      -0.08070000
