16
Properties=species:S:1:pos:R:3 gdb_51110=T pbc="F F F"
N       -0.12470000       1.30340000      -0.04710000
C       -0.12030000       0.05430000      -0.20760000
O       -1.12380000      -0.69100000       0.32650000
C       -1.01300000      -2.06510000       0.17840000
C       -1.13120000      -2.80200000      -1.12580000
C       -2.13780000      -3.05230000      -0.01760000
C       -1.52280000      -3.92740000       1.12310000
O       -0.16800000      -4.27360000       0.78640000
C       -0.43840000      -2.97530000       1.32430000
H        0.68040000       1.71630000      -0.51370000
H        0.61570000      -0.54600000      -0.75570000
H       -1.52740000      -2.19620000      -1.93480000
H       -0.41490000      -3.56250000      -1.40940000
H       -3.19450000      -2.85490000      -0.13050000
H       -2.05160000      -4.57530000       1.81030000
H        0.09990000      -2.64830000       2.20590000
