15
Properties=species:S:1:pos:R:3 gdb_123657=T pbc="F F F"
C        0.01150000       1.49150000       0.09710000
C        1.31650000       0.73400000       0.01070000
N        2.04740000       0.33110000       1.21060000
C        1.13840000      -0.44870000       1.94470000
C        0.00410000      -0.74790000       1.23670000
N       -0.67900000      -1.55860000       2.07190000
N        0.00430000      -1.73700000       3.23240000
N        1.12240000      -1.04280000       3.15320000
C       -0.02530000      -0.02410000      -0.04800000
H       -0.29670000       1.91740000       1.04560000
H       -0.26120000       2.07210000      -0.77750000
H        1.92560000       0.85640000      -0.87760000
H        2.49920000       1.08510000       1.71270000
H       -1.56030000      -2.03140000       1.95610000
H       -0.39070000      -0.47410000      -0.96310000
