17
Properties=species:S:1:pos:R:3 gdb_2031=T pbc="F F F"
O        0.70990000       0.66120000      -0.78360000
C       -0.01610000      -0.21470000       0.03870000
C        0.11050000      -0.11340000       1.58740000
C       -1.39280000      -0.41190000       1.66100000
C       -2.00710000      -1.60340000       2.33740000
C       -2.34400000      -0.20080000       2.79680000
C       -1.55850000      -0.05290000       0.17840000
H        0.50950000       1.56190000      -0.50750000
H        0.23870000      -1.22040000      -0.30620000
H        0.80300000      -0.79400000       2.08990000
H        0.34200000       0.91480000       1.89370000
H       -2.76920000      -2.16210000       1.80280000
H       -1.37690000      -2.21250000       2.97830000
H       -1.94160000       0.13550000       3.74740000
H       -3.33330000       0.18590000       2.57240000
H       -1.85540000       0.99440000       0.03860000
H       -2.19780000      -0.68530000      -0.44340000
