17
Properties=species:S:1:pos:R:3 gdb_125097=T pbc="F F F"
C        0.40840000       1.42040000      -0.01720000
C        0.11900000      -0.04500000      -0.07200000
C       -0.04520000      -0.89100000      -1.15400000
N       -0.30580000      -2.09400000      -0.56980000
N       -0.30120000      -2.01550000       0.76870000
N       -0.04360000      -0.77580000       1.07170000
C       -0.01380000      -0.72450000      -2.62010000
C        0.89910000       0.25600000      -3.26070000
N        1.16500000      -1.18220000      -3.40210000
H        1.48510000       1.62690000      -0.03870000
H       -0.05010000       1.95350000      -0.85390000
H        0.01670000       1.83180000       0.91580000
H       -0.48920000      -2.98000000      -1.01530000
H       -0.95050000      -0.94430000      -3.12930000
H        0.58450000       0.75620000      -4.17170000
H        1.54950000       0.84410000      -2.62120000
H        1.90560000      -1.44630000      -2.75530000
