18
Properties=species:S:1:pos:R:3 gdb_125548=T pbc="F F F"
C        0.03510000       1.42170000      -0.08360000
C        0.00290000      -0.06980000       0.03500000
N        0.02660000      -0.82970000      -1.06180000
N        0.04240000      -2.09250000      -0.56670000
C       -0.16090000      -3.38250000      -1.18850000
C        0.13640000      -4.30390000       0.02380000
N       -0.20140000      -3.46480000       1.20190000
C       -0.03890000      -2.14290000       0.78030000
C       -0.04610000      -0.84160000       1.23520000
H        0.94410000       1.84180000       0.36210000
H        0.00500000       1.70980000      -1.13660000
H       -0.81780000       1.88210000       0.42740000
H       -1.19320000      -3.49220000      -1.54500000
H        0.52000000      -3.55100000      -2.02560000
H       -0.46430000      -5.21590000       0.01060000
H        1.19850000      -4.58420000       0.02210000
H        0.29620000      -3.71570000       2.04540000
H       -0.08260000      -0.48520000       2.25100000
