19
Properties=species:S:1:pos:R:3 gdb_32894=T pbc="F F F"
C       -0.02110000       1.48880000       0.04600000
C        0.01380000      -0.02770000      -0.00360000
O        0.67160000      -0.47900000       1.18330000
C        0.80070000      -1.81250000       1.32320000
C        1.39920000      -2.44400000       2.38900000
N        1.29820000      -3.79470000       2.09780000
C        1.77980000      -4.88550000       2.91680000
C        0.66120000      -3.89450000       0.90580000
N        0.34440000      -2.71420000       0.40530000
H        0.99190000       1.89960000       0.08740000
H       -0.51770000       1.88130000      -0.84650000
H       -0.56770000       1.83630000       0.92750000
H       -0.99610000      -0.45240000      -0.04980000
H        0.55560000      -0.38930000      -0.88570000
H        1.86630000      -2.07720000       3.28570000
H        1.28850000      -4.88720000       3.89520000
H        1.56050000      -5.82960000       2.41440000
H        2.86150000      -4.81260000       3.06780000
H        0.45380000      -4.85010000       0.44740000
