18
Properties=species:S:1:pos:R:3 gdb_70173=T pbc="F F F"
C       -0.02490000       1.52130000       0.01300000
C       -0.01770000       0.00480000       0.01350000
C       -0.86090000      -0.72590000       1.05830000
C        0.64430000      -0.74150000       1.15510000
N        1.40560000      -1.90720000       0.83300000
C        1.44280000      -2.53140000      -0.39140000
O        2.01450000      -3.59700000      -0.55500000
C        0.77230000      -1.80000000      -1.49240000
C        0.13090000      -0.64090000      -1.31230000
H        0.89790000       1.92390000      -0.41810000
H       -0.86680000       1.90540000      -0.57450000
H       -0.12210000       1.91610000       1.02870000
H       -1.40980000      -0.11430000       1.76690000
H       -1.35400000      -1.64140000       0.75240000
H        1.09880000      -0.14290000       1.93890000
H        1.83000000      -2.43180000       1.58340000
H        0.86270000      -2.26770000      -2.46550000
H       -0.30030000      -0.11630000      -2.16290000
