21
Properties=species:S:1:pos:R:3 gdb_92710=T pbc="F F F"
C        0.01760000       1.60170000      -0.05990000
C        0.11630000       0.08080000       0.01860000
C        0.82060000      -0.59050000      -1.19040000
C        1.52730000      -1.77490000      -0.57840000
C        1.56290000      -1.72700000       0.75610000
C        2.18330000      -2.70130000       1.70570000
C        0.86010000      -0.49480000       1.23280000
C        1.31480000       0.28640000       2.39770000
O        0.15770000      -0.54820000       2.48580000
H        1.00920000       2.06450000      -0.11450000
H       -0.54160000       1.90670000      -0.95060000
H       -0.50390000       2.01190000       0.81110000
H       -0.89890000      -0.33080000       0.08450000
H        0.11450000      -0.87420000      -1.97940000
H        1.54040000       0.09800000      -1.65680000
H        1.98070000      -2.55790000      -1.17750000
H        2.51010000      -3.60730000       1.18940000
H        3.05750000      -2.27070000       2.21060000
H        1.47080000      -2.97810000       2.49000000
H        2.17670000      -0.04600000       2.97550000
H        1.12490000       1.35760000       2.43790000
