20
Properties=species:S:1:pos:R:3 gdb_37198=T pbc="F F F"
C       -0.04210000       1.54500000      -0.03620000
C        1.53250000       1.56710000      -0.05080000
C        1.54190000       0.00750000      -0.02770000
C        1.57440000      -0.76700000       1.31670000
C        0.00700000      -0.78890000       1.33130000
C       -0.00720000      -0.01420000      -0.01330000
C        0.01180000      -0.85710000      -1.29250000
N        0.74710000      -0.06570000      -2.30530000
C        1.52290000      -0.83590000      -1.30650000
H       -0.50630000       1.99900000       0.84390000
H       -0.49510000       1.96690000      -0.93460000
H        1.95680000       2.00140000      -0.95730000
H        2.00010000       2.03420000       0.82080000
H        2.05430000      -1.74860000       1.27160000
H        2.02940000      -0.21000000       2.14010000
H       -0.44600000      -1.78370000       1.29480000
H       -0.44810000      -0.24470000       2.16300000
H       -0.68530000      -1.62660000      -1.61090000
H        0.74680000      -0.61000000      -3.16680000
H        2.23530000      -1.58550000      -1.63790000
