19
Properties=species:S:1:pos:R:3 gdb_40189=T pbc="F F F"
C        0.03550000       1.48760000       0.01570000
O        1.20040000       0.65930000       0.07830000
C       -0.09420000       0.02710000       0.00920000
C       -0.47240000      -0.73240000       1.26320000
C        0.32740000      -2.04340000       1.33690000
C        0.19460000      -2.85210000       0.06570000
O       -1.12290000      -2.95270000      -0.48800000
C       -0.13940000      -2.19710000      -1.20990000
C       -0.37760000      -0.69860000      -1.29690000
H       -0.19200000       2.04730000       0.92260000
H       -0.09040000       2.04670000      -0.91160000
H       -0.26980000      -0.11810000       2.14470000
H       -1.54390000      -0.95720000       1.24410000
H        1.38930000      -1.81690000       1.49240000
H       -0.00170000      -2.64480000       2.19210000
H        0.76210000      -3.78310000       0.03420000
H        0.17900000      -2.67530000      -2.13630000
H       -1.42010000      -0.53600000      -1.59950000
H        0.26010000      -0.26800000      -2.07490000
