23
Properties=species:S:1:pos:R:3 gdb_88978=T pbc="F F F"
C        0.02000000       1.47720000      -0.14780000
C        0.25630000      -0.01460000      -0.06560000
C        1.63150000      -0.55810000       0.28190000
C        0.48340000      -0.69100000       1.25260000
O        0.43840000       0.10490000       2.40080000
C        1.07030000      -0.47370000       3.50520000
C        2.53650000      -0.22110000       3.75870000
C        1.47600000       0.43750000       4.62400000
C        1.23780000       1.92910000       4.54240000
H        0.57660000       2.00670000       0.62860000
H        0.33320000       1.86820000      -1.12180000
H       -1.04050000       1.71690000      -0.01450000
H       -0.31240000      -0.59930000      -0.78420000
H        2.00150000      -1.44390000      -0.22340000
H        2.39260000       0.17400000       0.52880000
H        0.05580000      -1.68400000       1.39800000
H        0.67360000      -1.45630000       3.76440000
H        3.14640000      -1.01790000       4.17120000
H        3.04780000       0.41960000       3.04860000
H        1.35380000       0.01740000       5.61920000
H        1.32430000       2.28510000       3.51340000
H        0.23470000       2.18870000       4.89760000
H        1.96330000       2.47370000       5.15620000
