20
Properties=species:S:1:pos:R:3 gdb_26222=T pbc="F F F"
C        0.08170000       1.55610000       0.00600000
C        0.07060000       0.01520000       0.00240000
C        0.79040000      -0.54370000      -1.24030000
C        0.64440000      -0.53960000       1.26340000
C        0.17720000      -1.30180000       2.28060000
N        1.18690000      -1.51500000       3.21440000
C        2.20990000      -0.88380000       2.73420000
C        3.57630000      -0.76070000       3.30480000
O        1.96270000      -0.26280000       1.54800000
H        1.10710000       1.93460000       0.05840000
H       -0.37770000       1.94510000      -0.90810000
H       -0.46930000       1.95280000       0.86360000
H       -0.97310000      -0.32140000      -0.02410000
H        1.84510000      -0.25180000      -1.23930000
H        0.74190000      -1.63610000      -1.26660000
H        0.33180000      -0.15670000      -2.15560000
H       -0.81150000      -1.71330000       2.41050000
H        4.32890000      -1.17010000       2.62270000
H        3.83550000       0.28720000       3.48960000
H        3.61490000      -1.30800000       4.24690000
