17
Properties=species:S:1:pos:R:3 gdb_40541=T pbc="F F F"
C        0.26620000       1.41120000      -0.04360000
O        1.18370000       0.33990000      -0.22420000
C       -0.19620000       0.00990000       0.01450000
C       -0.51110000      -0.67700000       1.28050000
C       -1.44410000      -1.62630000       1.44130000
C       -1.40740000      -2.16650000       2.83050000
O       -0.14280000      -2.79480000       3.15620000
C       -0.34190000      -1.43410000       3.53730000
C        0.25020000      -0.41430000       2.57170000
H        0.38430000       1.98250000       0.87550000
H        0.04810000       2.00190000      -0.93270000
H       -0.71520000      -0.37630000      -0.86280000
H       -2.10510000      -1.99710000       0.66720000
H       -2.27570000      -2.60350000       3.31350000
H       -0.35200000      -1.24380000       4.60710000
H        1.32840000      -0.54640000       2.43560000
H        0.09310000       0.60800000       2.93890000
