19
Properties=species:S:1:pos:R:3 gdb_115125=T pbc="F F F"
C        0.00840000       1.53210000       0.01490000
C        0.01660000       0.00010000      -0.05550000
N        0.70070000      -0.52330000      -1.22250000
C        0.04200000      -0.64910000      -2.51810000
C        1.09810000      -1.29750000      -3.43200000
C        2.40250000      -1.16540000      -2.65640000
O        3.51850000      -1.39470000      -3.04250000
C        2.05750000      -0.68550000      -1.26000000
N        2.86430000      -0.47360000      -0.29230000
H        1.03250000       1.91080000       0.05620000
H       -0.49480000       1.97350000      -0.85150000
H       -0.51850000       1.86480000       0.91460000
H        0.53050000      -0.40370000       0.82170000
H       -1.00760000      -0.39140000      -0.05980000
H       -0.86330000      -1.25970000      -2.42280000
H       -0.26810000       0.33140000      -2.90710000
H        0.89960000      -2.36310000      -3.58870000
H        1.17680000      -0.83290000      -4.41690000
H        3.80580000      -0.71620000      -0.60680000
