13
Properties=species:S:1:pos:R:3 gdb_4479=T pbc="F F F"
C        0.14940000       1.51450000       0.13560000
C       -0.02820000       0.05090000       0.01720000
C       -1.06440000      -0.78820000      -0.21310000
O       -2.35760000      -0.46410000      -0.41860000
N       -0.64710000      -2.11450000      -0.21980000
C        0.62500000      -2.01050000       0.00760000
O        1.52460000      -2.98640000       0.10570000
O        1.09900000      -0.77920000       0.16360000
H        0.83730000       1.91190000      -0.62070000
H       -0.82150000       1.99610000      -0.00460000
H        0.53440000       1.80790000       1.11980000
H       -2.83410000      -1.29160000      -0.55090000
H        1.05150000      -3.81760000      -0.02610000
