13
Properties=species:S:1:pos:R:3 gdb_49966=T pbc="F F F"
O        0.41350000       0.00250000       0.77420000
C        0.18490000       1.08130000       0.30280000
N        1.09080000       1.77020000      -0.52200000
C        2.49010000       1.86400000      -0.25640000
C        1.60600000       3.11180000      -0.24020000
C        1.65960000       4.02550000      -1.44220000
O        1.63860000       5.22110000      -1.38070000
C        1.33250000       3.72860000       1.03820000
N        1.09300000       4.21470000       2.05840000
H       -0.77340000       1.61920000       0.39900000
H        2.85100000       1.51520000       0.70730000
H        3.15840000       1.71900000      -1.10080000
H        1.72560000       3.46030000      -2.39590000
