20
Properties=species:S:1:pos:R:3 gdb_33151=T pbc="F F F"
C       -0.01600000       1.56410000       0.01880000
C       -0.00570000       0.03400000       0.04730000
C       -1.41960000      -0.55770000      -0.03610000
N       -1.44640000      -2.00790000      -0.00930000
C       -1.46300000      -2.82310000      -1.10500000
C       -1.37380000      -4.13410000      -0.68400000
C       -1.29560000      -4.09980000       0.73450000
O       -1.20720000      -5.15460000       1.59930000
C       -1.33700000      -2.78200000       1.13080000
H        0.99920000       1.96600000       0.08170000
H       -0.46650000       1.94330000      -0.90540000
H       -0.58850000       1.97510000       0.85790000
H        0.58870000      -0.35750000      -0.78650000
H        0.47420000      -0.32430000       0.96510000
H       -2.03060000      -0.18490000       0.79450000
H       -1.90860000      -0.23200000      -0.96060000
H       -1.53950000      -2.40780000      -2.09770000
H       -1.38400000      -5.01080000      -1.31480000
H       -1.19670000      -5.96540000       1.08350000
H       -1.30800000      -2.34160000       2.11320000
