19
Properties=species:S:1:pos:R:3 gdb_59819=T pbc="F F F"
C        0.33310000       1.29480000      -0.20730000
C       -0.11060000      -0.15020000       0.04630000
C        0.27370000      -0.61970000       1.45380000
N       -1.56110000      -0.22940000      -0.09570000
C       -2.02750000      -0.98490000      -0.97760000
O       -3.37860000      -1.07380000      -1.15170000
C       -3.81430000      -1.98100000      -2.14500000
C       -3.70150000      -3.38810000      -1.72510000
N       -3.60320000      -4.49230000      -1.40110000
H        1.41720000       1.38940000      -0.08970000
H        0.06710000       1.61420000      -1.21930000
H       -0.15540000       1.97120000       0.50070000
H        0.39190000      -0.80420000      -0.68910000
H       -0.21610000       0.00340000       2.20820000
H       -0.03520000      -1.65610000       1.61750000
H        1.35690000      -0.55540000       1.59670000
H       -1.44040000      -1.61100000      -1.66610000
H       -4.86480000      -1.74700000      -2.33310000
H       -3.26480000      -1.84850000      -3.08650000
