21
Properties=species:S:1:pos:R:3 gdb_59133=T pbc="F F F"
C        0.92780000      -0.34650000      -1.34630000
C        0.11580000       0.04040000      -0.10730000
C       -0.01100000       1.56080000       0.01980000
N       -1.22880000      -0.54400000      -0.21410000
C       -2.02100000      -0.62560000       1.05160000
C       -2.80120000      -1.87570000       0.53890000
N       -2.54850000      -2.73340000       1.74070000
C       -1.30010000      -1.91440000       1.61370000
C       -1.33690000      -2.01260000       0.04630000
H        1.92680000       0.09870000      -1.30850000
H        1.04990000      -1.43130000      -1.42460000
H        0.42400000       0.00350000      -2.25290000
H        0.64780000      -0.33750000       0.78590000
H       -0.54160000       1.96980000      -0.84590000
H       -0.56470000       1.84440000       0.92040000
H        0.97700000       2.02810000       0.07600000
H       -2.40270000       0.24420000       1.59030000
H       -3.71180000      -1.90520000      -0.05840000
H       -3.10640000      -2.40130000       2.53210000
H       -0.46340000      -2.01420000       2.30540000
H       -0.91580000      -2.78610000      -0.59510000
