12
Properties=species:S:1:pos:R:3 gdb_25313=T pbc="F F F"
O        0.01520000      -0.08140000      -0.00200000
C       -0.00620000       1.12650000       0.00890000
C        1.18580000       1.97240000       0.00290000
C        1.32470000       3.34680000       0.01350000
C        2.73010000       3.61290000      -0.00010000
C        3.32850000       2.39090000      -0.01730000
O        2.41150000       1.39910000      -0.01570000
C        0.27280000       4.29640000       0.03360000
N       -0.57890000       5.08040000       0.05000000
H       -0.94930000       1.70910000       0.02450000
H        3.20820000       4.57840000       0.00280000
H        4.35960000       2.07730000      -0.03160000
