21
Properties=species:S:1:pos:R:3 gdb_39922=T pbc="F F F"
C       -0.12780000       1.49700000       0.04260000
C        1.25140000       0.89390000       0.00110000
C        0.03210000      -0.00710000       0.01650000
C       -0.27350000      -0.85960000       1.19890000
C       -0.63420000      -2.09840000       0.85470000
C       -0.64670000      -2.29950000      -0.63870000
C       -2.04970000      -2.29910000      -1.31880000
C       -1.89060000      -0.77930000      -1.60500000
C       -0.38880000      -0.85090000      -1.18380000
H       -0.45860000       1.96260000       0.96550000
H       -0.50310000       1.97790000      -0.85500000
H        1.81270000       0.96330000      -0.92550000
H        1.86290000       0.94340000       0.89630000
H       -0.18860000      -0.48780000       2.21530000
H       -0.89260000      -2.88800000       1.55260000
H        0.02450000      -3.10520000      -0.95550000
H       -2.06820000      -2.90190000      -2.23100000
H       -2.89450000      -2.59650000      -0.69190000
H       -2.08640000      -0.46350000      -2.63250000
H       -2.47830000      -0.14780000      -0.93430000
H        0.30110000      -0.77690000      -2.02710000
