20
Properties=species:S:1:pos:R:3 gdb_57960=T pbc="F F F"
C       -0.02780000       1.00830000      -0.75020000
C       -0.04510000      -0.06420000       0.34770000
O        0.38120000       0.47480000       1.57370000
C       -1.42640000      -0.67860000       0.49720000
N       -2.06320000      -0.53640000       1.58300000
O       -1.80130000      -1.33050000      -0.63200000
C       -3.09130000      -1.89440000      -0.65950000
C       -3.25470000      -3.08070000      -1.54980000
C       -3.30270000      -3.25230000      -0.04570000
H        0.97630000       1.43430000      -0.81750000
H       -0.30080000       0.58500000      -1.72030000
H       -0.72570000       1.81320000      -0.50000000
H        0.63350000      -0.87920000       0.04800000
H       -0.37170000       0.37060000       2.17760000
H       -2.97010000      -0.99630000       1.59350000
H       -3.88630000      -1.15510000      -0.60480000
H       -4.17260000      -3.16980000      -2.11880000
H       -2.36380000      -3.42700000      -2.06040000
H       -2.44410000      -3.71380000       0.42790000
H       -4.25430000      -3.46150000       0.43020000
