20
Properties=species:S:1:pos:R:3 gdb_63432=T pbc="F F F"
C       -0.13010000       1.54780000      -0.06960000
C       -0.07590000       0.02740000      -0.03600000
O       -1.34960000      -0.55380000      -0.20890000
C        1.09010000      -0.58390000      -0.87330000
N        1.88500000      -0.65590000       0.36850000
C        2.74880000      -1.81050000       0.54790000
C        3.39580000      -1.81360000       1.85770000
C        3.91010000      -1.82870000       2.94330000
C        0.66040000      -0.55880000       1.19150000
H        0.86210000       1.97070000       0.10980000
H       -0.47560000       1.90460000      -1.04860000
H       -0.81730000       1.92230000       0.69570000
H       -1.80420000      -0.08140000      -0.91450000
H        0.79400000      -1.56950000      -1.26630000
H        1.53910000       0.01400000      -1.67490000
H        2.19640000      -2.76380000       0.42100000
H        3.51470000      -1.78960000      -0.23880000
H        4.37140000      -1.83920000       3.89960000
H        0.75220000       0.05900000       2.08960000
H        0.23010000      -1.53610000       1.45840000
