18
Properties=species:S:1:pos:R:3 gdb_121679=T pbc="F F F"
C        0.03880000       1.46950000       0.05200000
C       -0.01030000      -0.04280000      -0.06890000
O       -1.36110000      -0.45690000       0.06090000
C       -1.52850000      -1.83140000      -0.03860000
C       -3.00580000      -2.19050000       0.06150000
O       -3.89280000      -1.38560000       0.06850000
C       -3.25740000      -3.71150000       0.16900000
C       -4.63280000      -4.09270000      -0.12100000
N       -5.71550000      -4.41600000      -0.35690000
H        1.06920000       1.82360000      -0.04480000
H       -0.56600000       1.93550000      -0.73050000
H       -0.35050000       1.78900000       1.02240000
H        0.39110000      -0.37090000      -1.04220000
H        0.60630000      -0.51790000       0.71260000
H       -1.15580000      -2.22990000      -1.00270000
H       -0.97590000      -2.38140000       0.74750000
H       -2.57370000      -4.25780000      -0.49130000
H       -3.00350000      -4.01910000       1.19200000
