19
Properties=species:S:1:pos:R:3 gdb_16908=T pbc="F F F"
C        0.06910000       1.53170000       0.07270000
C        0.02120000       0.01360000       0.00850000
C        0.62170000      -0.53730000      -1.29170000
N        0.94890000      -1.97430000      -1.25710000
C        2.21340000      -2.34350000      -0.61490000
C        0.92300000      -2.65800000       0.04480000
C        0.50650000      -1.88400000       1.28060000
O        0.73400000      -0.49690000       1.13260000
H        1.10720000       1.87790000       0.06110000
H       -0.45180000       1.96950000      -0.78450000
H       -0.40380000       1.89330000       0.98950000
H       -1.02750000      -0.32320000       0.08500000
H       -0.09100000      -0.37280000      -2.10930000
H        1.52990000       0.02560000      -1.53970000
H        2.78550000      -3.11990000      -1.11670000
H        2.80570000      -1.54410000      -0.17340000
H        0.53910000      -3.67670000       0.00330000
H       -0.56120000      -2.06970000       1.48950000
H        1.07940000      -2.21030000       2.15530000
