14
Properties=species:S:1:pos:R:3 gdb_9031=T pbc="F F F"
C        0.02500000       1.47820000      -0.15890000
C        0.00240000      -0.05370000       0.08720000
C        0.69990000      -0.40910000       1.32730000
C        1.28780000      -0.67580000       2.33950000
C       -1.37050000      -0.56430000       0.07130000
C       -2.51030000      -0.95900000       0.02460000
C       -3.86390000      -1.45290000       0.01420000
O       -4.63990000      -1.30630000      -0.90190000
H        1.05930000       1.82790000      -0.18810000
H       -0.46260000       1.71060000      -1.10830000
H       -0.49920000       1.99870000       0.64510000
H        0.53270000      -0.53070000      -0.75030000
H        1.80310000      -0.92140000       3.23520000
H       -4.15340000      -1.99520000       0.93710000
