20
Properties=species:S:1:pos:R:3 gdb_41872=T pbc="F F F"
C       -0.04620000       1.53190000      -0.04850000
C        1.43840000       2.02490000      -0.00280000
C        2.21270000       0.81710000       0.53550000
C        3.70160000       0.63130000       0.27680000
N        4.11710000      -0.75250000       0.54270000
C        3.24220000      -1.66250000       0.61840000
O        1.89400000      -1.59950000       0.42140000
C        1.46720000      -0.34540000      -0.11310000
C       -0.00350000      -0.01950000       0.11500000
H       -0.63760000       1.98530000       0.75070000
H       -0.52230000       1.81950000      -0.98930000
H        1.78890000       2.27540000      -1.01110000
H        1.56300000       2.92110000       0.60990000
H        2.04120000       0.73700000       1.61890000
H        3.95550000       0.88170000      -0.76290000
H        4.31290000       1.28660000       0.90710000
H        3.52610000      -2.68220000       0.87290000
H        1.68860000      -0.35480000      -1.19170000
H       -0.27640000      -0.31760000       1.13240000
H       -0.67380000      -0.54080000      -0.57220000
