18
Properties=species:S:1:pos:R:3 gdb_9507=T pbc="F F F"
C       -0.29890000       1.47720000      -0.05050000
C        0.05230000      -0.00370000      -0.06030000
C        1.34070000      -0.40060000      -0.81530000
O        2.01290000      -0.76520000       0.40640000
C        0.81570000      -0.60020000       1.18120000
C        1.03480000       0.25270000       2.42210000
C        0.19570000      -1.93950000       1.55830000
O        0.58250000      -3.01070000       1.17720000
H        0.57240000       2.10000000       0.17350000
H       -0.67480000       1.77810000      -1.03440000
H       -1.07790000       1.70410000       0.68450000
H       -0.82580000      -0.59070000      -0.34500000
H        1.24040000      -1.25460000      -1.49490000
H        1.85490000       0.41780000      -1.33350000
H        1.40260000       1.24520000       2.15590000
H        0.10910000       0.36490000       2.99620000
H        1.78170000      -0.22330000       3.06580000
H       -0.70540000      -1.84150000       2.21210000
