23
Properties=species:S:1:pos:R:3 gdb_101870=T pbc="F F F"
C       -0.15840000       1.51680000       0.05470000
C       -0.06320000      -0.00760000      -0.03540000
C        0.74140000      -0.49880000      -1.24060000
C        0.90650000      -2.02080000      -1.24020000
O        0.05440000      -0.04690000      -2.40600000
C        0.82290000      -0.00230000      -3.58550000
C       -0.04160000       0.65880000      -4.66640000
C        0.65000000       0.75620000      -5.94430000
C        1.24550000       0.82420000      -6.98610000
H        0.83330000       1.96950000       0.16850000
H       -0.61260000       1.92660000      -0.85070000
H       -0.76410000       1.82430000       0.91240000
H        0.39860000      -0.41190000       0.87330000
H       -1.06840000      -0.44310000      -0.09800000
H        1.73990000      -0.02810000      -1.21660000
H       -0.07350000      -2.50830000      -1.26230000
H        1.48040000      -2.36700000      -2.10440000
H        1.43550000      -2.34780000      -0.33940000
H        1.74400000       0.58200000      -3.43250000
H        1.12240000      -1.00630000      -3.92020000
H       -0.96560000       0.07880000      -4.77650000
H       -0.33920000       1.65420000      -4.31630000
H        1.75940000       0.89080000      -7.91270000
