14
Properties=species:S:1:pos:R:3 gdb_75690=T pbc="F F F"
O        0.10130000       1.54400000       0.00970000
C        0.01230000       0.14550000      -0.00210000
C        0.10700000      -0.62690000       1.33560000
O        0.91680000      -0.73730000       2.19950000
N       -1.17840000      -1.29280000       1.18570000
C       -2.16650000      -0.18500000       1.13710000
C       -1.39790000      -0.41760000      -0.10060000
C       -2.01070000      -1.04380000      -1.30280000
O       -3.10520000      -1.54660000      -1.30360000
H        0.99700000       1.78590000       0.27170000
H        0.67720000      -0.31620000      -0.74960000
H       -3.18760000      -0.55000000       1.13710000
H       -1.97610000       0.71420000       1.71530000
H       -1.37840000      -1.01660000      -2.21610000
