23
Properties=species:S:1:pos:R:3 gdb_112975=T pbc="F F F"
C       -0.84830000       1.51870000      -0.20180000
O       -0.42970000       0.37350000       0.50420000
C       -1.04460000      -0.80660000       0.05970000
C       -0.56740000      -1.44210000      -1.27950000
C       -0.54090000      -2.82860000      -0.56140000
C       -0.58100000      -2.07300000       0.80390000
C       -1.74250000      -3.69950000      -0.83540000
C       -1.70000000      -4.73250000      -1.93340000
C       -1.71480000      -5.16650000      -0.48690000
H       -0.32730000       2.37730000       0.22890000
H       -0.60190000       1.45690000      -1.27270000
H       -1.93450000       1.67950000      -0.10920000
H       -2.14030000      -0.69040000       0.07810000
H       -1.21060000      -1.34760000      -2.15820000
H        0.43850000      -1.09090000      -1.52720000
H        0.36790000      -3.41370000      -0.73250000
H        0.41940000      -1.91390000       1.21440000
H       -1.23160000      -2.47250000       1.58550000
H       -2.70080000      -3.20300000      -0.69600000
H       -2.59110000      -4.89510000      -2.52980000
H       -0.77210000      -4.84490000      -2.48520000
H       -0.79670000      -5.56910000      -0.07070000
H       -2.61600000      -5.62530000      -0.09540000
