23
Properties=species:S:1:pos:R:3 gdb_110878=T pbc="F F F"
C        0.20250000       1.31740000      -0.28940000
C        0.12280000      -0.15870000       0.12160000
C       -1.30100000      -0.67950000       0.09680000
C       -2.01450000      -1.21660000      -1.12700000
C       -1.21400000      -1.68060000      -2.33820000
C       -0.30500000      -2.85140000      -1.88470000
O        1.05550000      -2.43790000      -2.02000000
C       -0.71170000      -3.19300000      -0.42010000
C       -1.70740000      -2.13540000       0.04090000
H        1.23200000       1.68670000      -0.24420000
H       -0.16070000       1.46110000      -1.31260000
H       -0.40730000       1.94880000       0.36720000
H        0.76760000      -0.75380000      -0.52950000
H        0.52050000      -0.27170000       1.13970000
H       -1.96200000      -0.09180000       0.73360000
H       -3.02720000      -0.87190000      -1.30850000
H       -1.90340000      -2.01750000      -3.11870000
H       -0.58900000      -0.89900000      -2.78200000
H       -0.46520000      -3.72720000      -2.52900000
H        1.61450000      -3.15400000      -1.70170000
H       -1.19010000      -4.17780000      -0.38120000
H        0.18230000      -3.25040000       0.21290000
H       -2.49430000      -2.45980000       0.71430000
