21
Properties=species:S:1:pos:R:3 gdb_70149=T pbc="F F F"
C       -0.12680000       1.49390000      -0.00800000
C       -0.03050000      -0.01670000       0.02760000
C       -0.79620000      -0.79660000       1.07190000
C        0.71140000      -0.68490000       1.17060000
C        1.60920000      -1.84110000       0.88850000
C        2.42040000      -1.86910000      -0.17080000
C        2.51240000      -0.71260000      -1.14550000
O        1.35970000      -0.49310000      -1.96310000
C        0.10570000      -0.69200000      -1.32930000
H        0.73160000       1.92440000      -0.53550000
H       -1.03300000       1.82000000      -0.53220000
H       -0.15240000       1.91880000       1.00040000
H       -1.38840000      -0.24390000       1.79380000
H       -1.22350000      -1.75190000       0.78310000
H        1.05920000      -0.02240000       1.96290000
H        1.58890000      -2.67800000       1.58490000
H        3.04710000      -2.73760000      -0.35430000
H        2.73870000       0.20660000      -0.58410000
H        3.33270000      -0.87070000      -1.85100000
H       -0.09940000      -1.76550000      -1.22440000
H       -0.63140000      -0.28370000      -2.03000000
