22
Properties=species:S:1:pos:R:3 gdb_117642=T pbc="F F F"
C       -0.18370000       1.35770000      -0.74790000
C       -0.06910000      -0.06450000      -0.22240000
O        0.53420000      -0.85290000      -1.23480000
C        0.75010000      -2.24510000      -0.97270000
C        1.72170000      -2.46360000       0.19740000
C       -0.57110000      -2.99810000      -0.75260000
C        1.41430000      -2.83480000      -2.24360000
N        1.62660000      -1.95460000      -3.24890000
O        1.71090000      -4.01530000      -2.29640000
H        0.80450000       1.76010000      -0.98950000
H       -0.79770000       1.38590000      -1.65290000
H       -0.64600000       2.00430000       0.00380000
H        0.53570000      -0.08050000       0.69530000
H       -1.06480000      -0.45430000       0.03260000
H        1.25640000      -2.22090000       1.15680000
H        2.02620000      -3.51170000       0.21370000
H        2.61390000      -1.84260000       0.07220000
H       -1.28600000      -2.75140000      -1.54340000
H       -0.37570000      -4.07160000      -0.78200000
H       -1.01780000      -2.75160000       0.21460000
H        1.35580000      -0.99350000      -3.13480000
H        2.05530000      -2.28290000      -4.09740000
