20
Properties=species:S:1:pos:R:3 gdb_103091=T pbc="F F F"
C       -0.12360000       1.51450000      -0.12790000
C        0.00790000       0.02250000       0.08190000
C        1.34080000      -0.70690000      -0.11060000
C        2.52690000       0.04230000      -0.40710000
N        3.48080000       0.65560000      -0.64030000
C        0.68950000      -0.60350000       1.27090000
C        1.33840000       0.25100000       2.34130000
C        0.08290000      -1.90090000       1.78660000
O        1.03640000      -2.81130000       2.30530000
H        0.78440000       2.05550000       0.14540000
H       -0.32900000       1.73320000      -1.18060000
H       -0.95210000       1.91540000       0.46530000
H       -0.83720000      -0.54460000      -0.30250000
H        1.31260000      -1.68150000      -0.58710000
H        1.83300000       1.13330000       1.93310000
H        0.59230000       0.58500000       3.07140000
H        2.10620000      -0.32010000       2.87490000
H       -0.69200000      -1.66290000       2.53300000
H       -0.41220000      -2.42880000       0.96460000
H        1.34940000      -2.47640000       3.15060000
