17
Properties=species:S:1:pos:R:3 gdb_88802=T pbc="F F F"
C        0.07360000       1.53780000      -0.26680000
C       -0.10240000       0.09440000       0.12230000
O        1.03140000      -0.78910000       0.03810000
C        0.45100000      -0.55810000       1.32040000
C        1.32030000       0.06940000       2.38330000
C        2.36090000      -0.86080000       3.04810000
O        3.44040000       0.03010000       2.62860000
C        2.57680000       0.87620000       1.99320000
O        2.84600000       1.87870000       1.41430000
H        0.97430000       1.97740000       0.16200000
H        0.12920000       1.62050000      -1.35740000
H       -0.79820000       2.11440000       0.06280000
H       -1.01360000      -0.36550000      -0.26770000
H       -0.11160000      -1.41130000       1.71130000
H        0.70590000       0.61410000       3.10730000
H        2.32730000      -0.94240000       4.13590000
H        2.47290000      -1.84340000       2.58540000
