20
Properties=species:S:1:pos:R:3 gdb_39416=T pbc="F F F"
C        0.20590000       1.66340000       0.04440000
C        1.29350000       0.67830000      -0.30470000
C        2.53860000       0.52150000       0.54660000
O        2.30100000       0.27480000       1.91920000
C        1.84890000      -1.03680000       2.19580000
C        0.33760000      -1.16350000       2.22690000
C       -0.47720000       0.02600000       2.60880000
N       -0.52350000      -0.51020000       1.25920000
C       -0.10010000       0.18770000       0.07010000
H        0.29450000       2.15750000       1.00620000
H       -0.23140000       2.27830000      -0.73460000
H        1.51880000       0.58340000      -1.36530000
H        3.16120000      -0.28670000       0.12850000
H        3.13370000       1.44170000       0.51090000
H        2.27540000      -1.74770000       1.47080000
H        2.23810000      -1.31010000       3.18520000
H        0.00740000      -2.15940000       2.52870000
H       -1.39240000      -0.07980000       3.18750000
H        0.08440000       0.93740000       2.79700000
H       -0.66170000      -0.17430000      -0.78810000
