18
Properties=species:S:1:pos:R:3 gdb_73963=T pbc="F F F"
N        0.13180000       1.37820000      -0.15730000
C       -0.01950000       0.02290000      -0.00030000
C       -1.19400000      -0.65440000       0.13650000
C       -1.20470000      -2.16840000       0.13670000
C        0.10890000      -2.72490000      -0.39580000
O        1.21220000      -2.08500000       0.24000000
C        1.29380000      -0.73100000      -0.10570000
C       -2.47190000       0.01210000       0.30600000
O       -3.54230000      -0.56080000       0.39530000
H        1.00830000       1.78080000       0.13640000
H       -0.66380000       1.97710000      -0.00840000
H       -1.38320000      -2.54490000       1.15190000
H       -2.04590000      -2.52350000      -0.46850000
H        0.21350000      -3.79140000      -0.18210000
H        0.17530000      -2.58500000      -1.48730000
H        1.67800000      -0.60020000      -1.13440000
H        2.02970000      -0.27740000       0.57160000
H       -2.44400000       1.12580000       0.37340000
