15
Properties=species:S:1:pos:R:3 gdb_5242=T pbc="F F F"
C       -0.01860000       1.34340000      -0.14280000
O        0.01610000      -0.06520000      -0.11520000
C       -1.23990000      -0.62690000       0.20220000
C       -1.13400000      -2.11180000       0.17620000
N       -1.30750000      -2.94220000       1.15600000
C       -1.10940000      -4.19470000       0.58950000
C       -0.82030000      -4.04280000      -0.72360000
O       -0.83780000      -2.70830000      -1.00630000
H        0.98560000       1.68590000      -0.40180000
H       -0.72970000       1.71930000      -0.89550000
H       -0.29850000       1.76490000       0.83530000
H       -1.57480000      -0.33680000       1.20820000
H       -2.00280000      -0.29060000      -0.52070000
H       -1.18730000      -5.10090000       1.16840000
H       -0.59170000      -4.70620000      -1.53980000
