21
Properties=species:S:1:pos:R:3 gdb_115608=T pbc="F F F"
O       -0.00900000       1.34960000      -0.48130000
C        0.08790000      -0.05980000      -0.30850000
C       -1.26390000      -0.54370000       0.19090000
C       -2.38670000      -0.50270000      -0.88590000
C       -2.21890000      -2.03310000      -1.09560000
C       -1.40430000      -2.09120000       0.23320000
O       -0.17720000      -2.78780000       0.20940000
C       -2.22680000      -2.56970000       1.42340000
O       -2.36990000      -3.98120000       1.27430000
H        0.83120000       1.66390000      -0.82720000
H        0.34440000      -0.56060000      -1.25390000
H        0.86760000      -0.32540000       0.41940000
H       -1.48730000      -0.02840000       1.13180000
H       -3.36100000      -0.23210000      -0.47160000
H       -2.18770000       0.14240000      -1.74330000
H       -3.11930000      -2.64910000      -1.15270000
H       -1.57340000      -2.27070000      -1.94400000
H       -0.39330000      -3.70650000       0.41620000
H       -1.68720000      -2.32360000       2.34990000
H       -3.20530000      -2.06850000       1.44750000
H       -2.69550000      -4.34810000       2.10060000
