20
Properties=species:S:1:pos:R:3 gdb_52617=T pbc="F F F"
C        0.15910000       1.40650000      -0.00690000
C        0.08950000      -0.04750000      -0.00400000
C        0.04040000      -1.25120000       0.01120000
C       -0.02800000      -2.71980000      -0.00520000
C       -1.48900000      -3.18950000      -0.12590000
O        0.74100000      -3.23270000      -1.10510000
C        0.60050000      -3.28620000       1.27120000
C        1.22890000      -4.62750000       1.26590000
N        2.05330000      -3.40680000       1.38860000
H        0.95920000       1.76240000      -0.66500000
H       -0.78000000       1.85240000      -0.35210000
H        0.36250000       1.79200000       0.99810000
H       -1.95030000      -2.77170000      -1.02520000
H       -1.51400000      -4.28040000      -0.18680000
H       -2.07420000      -2.86580000       0.73980000
H        0.64540000      -2.61480000      -1.83610000
H        0.10470000      -2.93630000       2.17350000
H        1.18730000      -5.24670000       2.15750000
H        1.25730000      -5.16700000       0.32490000
H        2.45240000      -3.20900000       0.47220000
