20
Properties=species:S:1:pos:R:3 gdb_114286=T pbc="F F F"
C        1.36670000       0.16640000       1.15930000
C        0.32710000       0.40180000       0.05730000
C        0.66300000      -0.37230000      -1.20700000
C        0.51020000      -1.91790000      -1.31990000
C       -0.26270000      -1.63880000      -2.60670000
C       -1.48910000      -0.84700000      -2.34230000
C       -2.30410000      -1.00470000      -1.16970000
C       -3.05800000      -1.16860000      -0.24570000
N       -0.17770000      -0.13560000      -2.44720000
H        1.41020000      -0.89000000       1.44690000
H        2.36990000       0.46200000       0.83200000
H        1.12610000       0.74310000       2.05720000
H       -0.66710000       0.13240000       0.41960000
H        0.29130000       1.46770000      -0.20160000
H        1.67740000      -0.09800000      -1.51770000
H        1.45350000      -2.44600000      -1.46430000
H       -0.06700000      -2.41950000      -0.53800000
H       -0.10110000      -2.12340000      -3.56480000
H       -2.07270000      -0.61310000      -3.23040000
H       -3.71070000      -1.29910000       0.58180000
