19
Properties=species:S:1:pos:R:3 gdb_42053=T pbc="F F F"
C        0.13430000       1.58150000       0.11820000
O        1.43140000       1.48140000      -0.50680000
C        1.30800000       0.04550000      -0.64050000
C        2.46770000      -0.69720000       0.01840000
O        2.18050000      -2.08240000       0.14190000
C        1.46310000      -2.43040000       1.29660000
O        0.10930000      -2.06300000       1.29800000
C       -0.12920000      -0.66870000       1.43160000
C       -0.05890000       0.04840000       0.08850000
H        0.19310000       2.03930000       1.11460000
H       -0.57040000       2.15730000      -0.49320000
H        1.23620000      -0.25060000      -1.69470000
H        3.36760000      -0.60780000      -0.59850000
H        2.69010000      -0.24960000       0.99820000
H        1.47800000      -3.52120000       1.34360000
H        1.96340000      -1.99950000       2.18350000
H       -1.13210000      -0.56400000       1.85980000
H        0.58070000      -0.22860000       2.14990000
H       -0.88150000      -0.29100000      -0.54370000
