14
Properties=species:S:1:pos:R:3 gdb_127871=T pbc="F F F"
C        0.00690000       1.42030000       0.09650000
N        0.11840000      -0.02410000       0.04190000
C        0.62870000      -0.57380000      -0.98990000
C        0.72220000      -2.03800000      -1.00190000
N        1.20200000      -2.75780000      -1.94160000
O        1.68110000      -2.01810000      -3.06810000
C        1.58670000      -0.66880000      -3.04380000
O        2.07460000      -0.14710000      -4.16550000
N        1.11580000       0.07710000      -2.12720000
H        0.54450000       1.77850000       0.98260000
H        0.38560000       1.93730000      -0.79070000
H       -1.04700000       1.68330000       0.24780000
H        0.35600000      -2.59050000      -0.14200000
H        2.38130000      -0.86800000      -4.73280000
