16
Properties=species:S:1:pos:R:3 gdb_46129=T pbc="F F F"
O        0.16780000       0.02340000       0.11330000
C        0.07940000       1.22580000       0.05440000
N       -1.02830000       2.00240000       0.39290000
C       -0.85850000       3.36950000      -0.07170000
C        0.68460000       3.49320000      -0.09110000
C        1.22730000       4.02310000       1.26420000
C        2.68460000       3.96690000       1.31640000
N        3.83840000       3.89990000       1.31440000
N        1.06200000       2.12020000      -0.36060000
H       -1.92670000       1.54860000       0.34300000
H       -1.26220000       3.52830000      -1.08100000
H       -1.32190000       4.09440000       0.60430000
H        1.02050000       4.16090000      -0.88910000
H        0.90430000       5.05940000       1.41490000
H        0.81360000       3.42280000       2.08180000
H        2.02480000       1.82210000      -0.32000000
