21
Properties=species:S:1:pos:R:3 gdb_94226=T pbc="F F F"
C       -0.09680000       1.45830000      -0.24340000
N       -0.07530000       0.05000000       0.08060000
C       -1.30180000      -0.63070000       0.50830000
C       -0.43380000      -1.56780000       1.37950000
C        0.70820000      -0.52130000       1.20220000
C        2.08280000      -1.03810000       0.79710000
C        0.79560000       0.37260000       2.47770000
C        1.72820000       1.49130000       2.36860000
N        2.47560000       2.36820000       2.27280000
H        0.91490000       1.81360000      -0.45800000
H       -0.70320000       1.60770000      -1.14360000
H       -0.52080000       2.09770000       0.55240000
H       -1.97960000       0.00110000       1.10830000
H       -1.88410000      -1.08030000      -0.30340000
H       -0.77370000      -1.75710000       2.39930000
H       -0.20260000      -2.51660000       0.89290000
H        1.98920000      -1.68380000      -0.07900000
H        2.75840000      -0.21410000       0.54580000
H        2.54290000      -1.61100000       1.61040000
H       -0.19460000       0.76550000       2.73370000
H        1.11430000      -0.25310000       3.31940000
