19
Properties=species:S:1:pos:R:3 gdb_84283=T pbc="F F F"
C        0.18850000       1.55220000      -0.02210000
C       -0.01670000       0.02960000      -0.01160000
C        0.77800000      -0.63200000      -1.13180000
C        1.48700000      -1.67920000      -0.68620000
C        2.99440000      -1.64570000      -0.69760000
O        3.17880000      -0.81510000       0.49090000
C        2.09260000      -1.08870000       1.37600000
C        0.58190000      -0.68320000       1.20650000
C        1.12180000      -2.01400000       0.75600000
H        1.25510000       1.79710000      -0.00960000
H       -0.26210000       2.01090000      -0.90840000
H       -0.27290000       2.00430000       0.86200000
H       -1.09780000      -0.17410000      -0.05280000
H        1.00840000      -0.09020000      -2.04490000
H        3.49160000      -2.61180000      -0.54980000
H        3.43350000      -1.12140000      -1.54800000
H        2.42940000      -1.16910000       2.40440000
H        0.06240000      -0.59570000       2.15860000
H        0.83820000      -3.00730000       1.08600000
