14
Properties=species:S:1:pos:R:3 gdb_15294=T pbc="F F F"
O       -0.06530000       0.02630000      -0.67700000
C       -0.00760000       1.07450000      -0.08570000
C        1.26450000       1.81660000       0.13120000
C        1.22100000       3.32240000       0.08380000
N        1.51440000       2.64560000       1.32250000
C        0.52510000       2.69940000       2.39900000
C        0.86270000       3.78870000       3.32250000
N        1.10510000       4.65310000       4.04860000
H       -0.92530000       1.55810000       0.31750000
H        2.14240000       1.29470000      -0.23870000
H        2.04190000       3.85830000      -0.38250000
H        0.24060000       3.78490000      -0.03300000
H       -0.51120000       2.85800000       2.06520000
H        0.55190000       1.75230000       2.94890000
