21
Properties=species:S:1:pos:R:3 gdb_77520=T pbc="F F F"
C       -0.05990000       1.50440000       0.05010000
C       -0.02400000      -0.00460000      -0.00540000
C        0.36780000      -0.79350000      -1.29460000
C       -0.37380000      -1.95700000      -0.56340000
O       -0.94760000      -3.04650000      -1.22110000
C        0.53740000      -2.22320000       0.64890000
C        0.81090000      -0.74730000       1.06810000
C       -1.32180000      -0.85660000      -0.02780000
O       -1.98010000      -1.02220000       1.20370000
H        0.94830000       1.92660000      -0.03080000
H       -0.66330000       1.92180000      -0.76290000
H       -0.48910000       1.84840000       0.99780000
H       -0.16470000      -0.45330000      -2.18580000
H        1.43360000      -0.91580000      -1.50640000
H       -0.25920000      -3.69850000      -1.38990000
H        0.01570000      -2.79070000       1.42290000
H        1.44460000      -2.76820000       0.36530000
H        1.86910000      -0.47500000       1.00930000
H        0.45380000      -0.53230000       2.07760000
H       -2.00980000      -0.51790000      -0.81400000
H       -2.67790000      -1.67410000       1.08200000
