20
Properties=species:S:1:pos:R:3 gdb_126395=T pbc="F F F"
C       -0.03770000       1.46280000       0.11020000
C       -0.05680000      -0.06360000      -0.09070000
C        0.74690000      -0.52150000      -1.26960000
N        0.17010000      -0.77680000      -2.44670000
N        1.16980000      -1.12490000      -3.27150000
C        0.87660000      -1.57930000      -4.61050000
C        2.38280000      -1.10560000      -2.64770000
C        2.15110000      -0.71370000      -1.34360000
N        3.06760000      -0.60650000      -0.27970000
H        0.98110000       1.83920000       0.25750000
H       -0.45050000       1.97080000      -0.76640000
H       -0.62860000       1.75230000       0.98520000
H        0.31860000      -0.55600000       0.81540000
H       -1.08970000      -0.39760000      -0.22890000
H        1.65740000      -1.24320000      -5.29840000
H        0.80530000      -2.67250000      -4.66240000
H       -0.07910000      -1.14830000      -4.91000000
H        3.29160000      -1.36790000      -3.16660000
H        4.02580000      -0.54290000      -0.59890000
H        2.87450000       0.18920000       0.31570000
