18
Properties=species:S:1:pos:R:3 gdb_77884=T pbc="F F F"
C       -0.14040000       1.53310000       0.06580000
N        0.13020000       0.09330000       0.07550000
C        1.38090000      -0.50450000      -0.30420000
C        2.60600000       0.30830000       0.11360000
O        2.83660000       1.50340000      -0.59050000
C        2.02150000       0.30370000       1.56230000
O        2.42490000       0.73000000       2.60790000
C        0.86060000      -0.58030000       1.14480000
C        0.21940000      -1.67520000       1.94210000
H        0.68680000       2.16770000       0.39830000
H       -0.39940000       1.82100000      -0.95710000
H       -1.01080000       1.71440000       0.70330000
H        1.37600000      -1.29940000      -1.04220000
H        3.50470000      -0.33220000       0.13110000
H        3.52250000       1.99290000      -0.12230000
H       -0.36460000      -1.25550000       2.76820000
H       -0.45580000      -2.25730000       1.31020000
H        0.97180000      -2.34300000       2.37300000
