20
Properties=species:S:1:pos:R:3 gdb_9338=T pbc="F F F"
C        0.14200000       1.50440000       0.00760000
C       -0.05020000      -0.01010000       0.00210000
C       -1.51200000      -0.43930000       0.01390000
O       -2.41690000       0.36620000       0.02710000
C       -1.77500000      -1.93720000       0.00840000
C       -3.25530000      -2.28690000       0.02060000
O       -3.36580000      -3.69440000       0.01420000
C       -4.70230000      -4.13440000       0.02450000
H        1.20540000       1.75900000      -0.00080000
H       -0.33100000       1.96060000      -0.86570000
H       -0.31510000       1.95220000       0.89360000
H        0.42660000      -0.46860000      -0.87530000
H        0.44300000      -0.47690000       0.86600000
H       -1.29190000      -2.38240000      -0.87110000
H       -1.27540000      -2.39170000       0.87380000
H       -3.74150000      -1.85780000       0.91050000
H       -3.75830000      -1.84850000      -0.85540000
H       -5.23960000      -3.79050000       0.92270000
H       -5.25650000      -3.78110000      -0.85960000
H       -4.68810000      -5.22710000       0.01860000
