25
Properties=species:S:1:pos:R:3 gdb_81030=T pbc="F F F"
C       -0.15320000       1.48820000      -0.07830000
C        0.03490000      -0.02350000       0.00330000
C        1.22100000      -0.58360000      -0.83700000
C        2.11120000      -0.42420000       0.42940000
C        0.79770000      -0.57850000       1.25830000
C        0.67660000       0.14230000       2.59100000
C        0.44150000      -2.07790000       1.37850000
C        0.93810000      -2.89390000       0.16080000
C        0.96800000      -2.06690000      -1.14710000
H        0.78270000       2.03520000       0.07660000
H       -0.53530000       1.77030000      -1.06580000
H       -0.87170000       1.84480000       0.66780000
H       -0.92980000      -0.51200000      -0.18650000
H        1.50180000      -0.02150000      -1.73260000
H        2.91910000      -1.14280000       0.59500000
H        2.52450000       0.58380000       0.51550000
H        0.88180000       1.21310000       2.49610000
H       -0.32940000       0.03080000       3.01450000
H        1.38540000      -0.26760000       3.32040000
H        0.87850000      -2.49640000       2.29390000
H       -0.64720000      -2.16520000       1.49060000
H        1.95550000      -3.23890000       0.37220000
H        0.33910000      -3.80120000       0.03420000
H        0.01850000      -2.15650000      -1.69000000
H        1.74420000      -2.46440000      -1.81150000
