18
Properties=species:S:1:pos:R:3 gdb_39781=T pbc="F F F"
C        0.05540000       1.41220000      -0.12140000
C        1.32170000       0.66730000       0.08660000
C        1.82320000       0.36740000       1.50390000
C        0.56690000       0.58670000       2.39710000
C       -0.02900000      -0.52620000       1.48290000
N       -0.00210000      -0.04760000       0.06530000
C        1.39510000      -1.12790000       1.55410000
C        1.98780000      -2.38570000       1.13240000
O        1.82180000      -2.03900000       2.53170000
H       -0.33310000       2.08650000       0.63280000
H       -0.18910000       1.70710000      -1.13800000
H        1.99210000       0.48170000      -0.74780000
H        2.81850000       0.70220000       1.79010000
H        0.73210000       0.20830000       3.40650000
H        0.10080000       1.57000000       2.44520000
H       -0.92680000      -1.08800000       1.73350000
H        1.35250000      -3.19600000       0.78000000
H        3.02050000      -2.41850000       0.78900000
