20
Properties=species:S:1:pos:R:3 gdb_52144=T pbc="F F F"
O       -0.46570000       0.50200000       0.70980000
C       -0.34110000       1.63010000       0.30820000
C        0.96210000       2.38680000       0.22550000
C        1.24230000       2.89860000      -1.20220000
C        2.48690000       3.77050000      -1.23250000
C        2.79300000       4.83030000      -2.32380000
C        1.71450000       5.68950000      -1.63180000
N        2.47000000       5.09640000      -0.42510000
C        3.72730000       5.43080000      -1.25140000
H       -1.22680000       2.20930000      -0.04870000
H        0.89560000       3.25710000       0.89300000
H        1.76740000       1.74140000       0.58790000
H        1.40440000       2.04650000      -1.87410000
H        0.36070000       3.42520000      -1.58130000
H        3.35030000       3.16160000      -0.93740000
H        2.97770000       4.68120000      -3.39370000
H        1.81040000       6.77610000      -1.70210000
H        0.66650000       5.39660000      -1.70010000
H        4.61110000       4.85980000      -0.95340000
H        3.93890000       6.50200000      -1.29700000
