23
Properties=species:S:1:pos:R:3 gdb_120034=T pbc="F F F"
C       -0.06000000       1.48280000      -0.16520000
C       -0.00520000      -0.03500000      -0.15410000
O       -1.32580000      -0.53000000       0.04350000
C       -1.41010000      -1.94270000       0.07500000
C       -2.77590000      -2.41130000       0.65450000
C       -3.49600000      -1.51120000       1.64680000
C       -3.32260000      -2.52810000      -0.79760000
C       -1.85880000      -2.49900000      -1.31890000
O       -1.55250000      -1.71550000      -2.44080000
H        0.94500000       1.89730000      -0.28820000
H       -0.68370000       1.84520000      -0.98810000
H       -0.47980000       1.85890000       0.77210000
H        0.40770000      -0.41980000      -1.09690000
H        0.64450000      -0.39220000       0.66080000
H       -0.50390000      -2.36510000       0.52830000
H       -2.64160000      -3.41050000       1.08350000
H       -3.56520000      -0.48970000       1.26470000
H       -4.51000000      -1.87960000       1.83580000
H       -2.96980000      -1.47250000       2.60680000
H       -3.93760000      -3.39510000      -1.04970000
H       -3.85570000      -1.62000000      -1.09840000
H       -1.46540000      -3.50110000      -1.51070000
H       -1.75810000      -0.80720000      -2.18510000
