15
Properties=species:S:1:pos:R:3 gdb_28735=T pbc="F F F"
N        0.04100000       1.34710000      -0.02250000
C       -0.09120000      -0.02590000       0.05850000
C       -1.09740000      -0.88860000       0.36630000
N       -0.58060000      -2.18160000       0.39350000
C        0.67090000      -2.05350000       0.10960000
C        1.71460000      -3.09850000      -0.06300000
C        2.06170000      -3.32520000      -1.53250000
O        3.18130000      -3.36060000      -1.96620000
O        1.04840000      -0.74830000      -0.11390000
H        0.70330000       1.64610000      -0.72710000
H       -0.84380000       1.82280000      -0.13020000
H       -2.13390000      -0.67920000       0.57190000
H        2.63450000      -2.85860000       0.47720000
H        1.29930000      -4.03270000       0.33130000
H        1.17360000      -3.46390000      -2.18890000
