20
Properties=species:S:1:pos:R:3 gdb_33456=T pbc="F F F"
C       -0.27340000      -1.21900000       0.58610000
C       -0.15300000      -0.04840000       0.33450000
C       -0.02900000       1.34790000      -0.00510000
C        0.74340000       2.21500000       0.93840000
N        1.32570000       1.84560000      -0.35670000
C       -1.17190000       1.90860000      -0.83070000
C       -1.11050000       3.38100000      -1.32320000
C       -1.71510000       2.90950000      -2.67390000
C       -1.29360000       1.45960000      -2.31520000
H       -0.37630000      -2.25050000       0.81640000
H        0.46740000       3.26200000       1.03010000
H        1.13450000       1.75910000       1.84280000
H        2.00170000       1.09640000      -0.23280000
H       -2.10900000       1.71870000      -0.29680000
H       -1.66200000       4.12930000      -0.74880000
H       -0.07380000       3.70560000      -1.44140000
H       -2.80290000       3.02310000      -2.69450000
H       -1.30320000       3.34410000      -3.58730000
H       -0.30910000       1.21560000      -2.72420000
H       -1.98650000       0.64770000      -2.54580000
