25
Properties=species:S:1:pos:R:3 gdb_113704=T pbc="F F F"
C       -0.93440000       0.87420000      -2.47730000
C       -0.42130000      -0.04510000      -1.36020000
C       -1.55030000      -0.83600000      -0.74230000
O       -2.03700000      -1.99180000      -1.44540000
C       -1.53080000      -2.17300000      -0.11860000
C       -0.39110000      -3.16220000       0.13030000
C        0.72730000      -3.12370000      -0.92340000
C        0.18640000      -2.87420000       1.52900000
C       -1.02960000      -4.56910000       0.11640000
H       -0.11690000       1.45250000      -2.91770000
H       -1.40360000       0.28760000      -3.27300000
H       -1.68010000       1.58220000      -2.09940000
H        0.34250000      -0.71200000      -1.75920000
H        0.05290000       0.55630000      -0.57310000
H       -2.36300000      -0.18890000      -0.39420000
H       -2.33120000      -2.32700000       0.61390000
H        1.36330000      -2.24160000      -0.81410000
H        1.37080000      -4.00260000      -0.81150000
H        0.31120000      -3.13190000      -1.93410000
H       -0.59080000      -2.91970000       2.30010000
H        0.95320000      -3.61190000       1.78830000
H        0.64580000      -1.88110000       1.57250000
H       -1.45970000      -4.79120000      -0.86520000
H       -0.28040000      -5.33500000       0.34290000
H       -1.82910000      -4.65110000       0.86070000
