27
Properties=species:S:1:pos:R:3 gdb_102493=T pbc="F F F"
C       -1.39430000       0.43370000      -0.20970000
C       -0.03470000      -0.17940000       0.14330000
C        0.75270000      -0.73360000      -1.07340000
C        2.25680000      -0.39960000      -0.96190000
C        2.57320000       1.07300000      -1.24650000
C        0.49920000      -2.25040000      -1.31860000
C        0.91070000      -2.65500000      -2.74360000
C        1.20360000      -3.14740000      -0.28740000
O       -0.92170000      -2.42070000      -1.19550000
H       -1.27610000       1.27730000      -0.90010000
H       -2.03980000      -0.30620000      -0.68610000
H       -1.90030000       0.80980000       0.68610000
H        0.57460000       0.58290000       0.64270000
H       -0.18080000      -0.97490000       0.88150000
H        0.37270000      -0.22320000      -1.96950000
H        2.61260000      -0.66150000       0.04270000
H        2.83650000      -1.01550000      -1.65840000
H        2.29320000       1.34240000      -2.27100000
H        2.03470000       1.74550000      -0.57090000
H        3.64240000       1.27570000      -1.12860000
H        1.97910000      -2.51300000      -2.92870000
H        0.69070000      -3.71590000      -2.91510000
H        0.34850000      -2.06980000      -3.47670000
H        0.91330000      -2.88440000       0.73300000
H        0.92700000      -4.19540000      -0.45420000
H        2.29220000      -3.08080000      -0.36620000
H       -1.12010000      -3.34790000      -1.36300000
