21
Properties=species:S:1:pos:R:3 gdb_121818=T pbc="F F F"
C        0.01330000       1.60650000       0.03050000
C       -0.08810000       0.07070000       0.04960000
C        0.75530000      -0.53690000       1.17800000
O       -1.44380000      -0.37780000       0.06790000
C       -2.25890000      -0.01790000       1.17430000
C       -3.54230000      -0.82340000       1.02870000
O       -3.28640000      -2.21260000       1.05100000
C        0.42690000      -0.44000000      -1.30270000
O        1.58600000      -0.44720000      -1.62110000
H        1.04870000       1.90080000      -0.15900000
H       -0.61990000       2.02800000      -0.75610000
H       -0.29430000       2.03140000       0.99010000
H        0.54190000      -0.06550000       2.14100000
H        0.56180000      -1.61010000       1.26310000
H        1.81340000      -0.39210000       0.94780000
H       -1.77060000      -0.27670000       2.12310000
H       -2.48120000       1.05910000       1.17540000
H       -4.21130000      -0.60220000       1.86670000
H       -4.05130000      -0.52040000       0.09970000
H       -2.58700000      -2.35770000       0.40320000
H       -0.38230000      -0.79060000      -1.97980000
