17
Properties=species:S:1:pos:R:3 gdb_45179=T pbc="F F F"
O        0.01160000       0.00290000      -0.10950000
C       -0.00570000       1.20110000       0.01570000
C       -1.28640000       2.04770000       0.10170000
C       -0.90140000       3.36240000       0.77460000
N       -0.10880000       2.96940000       1.99900000
C        1.11260000       3.16740000       1.18320000
C        0.39890000       3.99060000       0.09640000
N        1.04190000       3.19470000      -0.95400000
C        1.23680000       2.08630000       0.03520000
H       -1.70210000       2.19900000      -0.90230000
H       -2.02820000       1.50110000       0.68870000
H       -1.74790000       4.02610000       0.95850000
H       -0.15590000       3.71420000       2.69040000
H        2.03810000       3.43740000       1.69030000
H        0.42220000       5.07740000      -0.01150000
H        0.48260000       2.96020000      -1.77230000
H        2.15800000       1.51180000      -0.06960000
