18
Properties=species:S:1:pos:R:3 gdb_33470=T pbc="F F F"
N       -0.48580000      -1.12030000       0.77710000
C       -0.29030000      -0.02300000       0.47150000
C       -0.09920000       1.36470000       0.07420000
C        0.76940000       2.20730000       0.92140000
O        1.24130000       1.68360000      -0.31810000
C       -1.21490000       1.93720000      -0.77050000
C       -1.05560000       3.37030000      -1.34720000
C       -1.69050000       2.86020000      -2.66970000
C       -1.36920000       1.40760000      -2.22690000
H        0.58790000       3.28020000       0.93830000
H        1.22600000       1.78420000       1.81340000
H       -2.15510000       1.83310000      -0.21930000
H       -1.55410000       4.18520000      -0.81790000
H        0.00060000       3.61800000      -1.48150000
H       -2.76760000       3.04610000      -2.70020000
H       -1.24920000       3.21070000      -3.60440000
H       -0.40750000       1.06900000      -2.62190000
H       -2.11880000       0.63470000      -2.40510000
