19
Properties=species:S:1:pos:R:3 gdb_41786=T pbc="F F F"
C        0.21670000       1.63620000       0.10190000
O        1.45510000       1.47570000      -0.62210000
C        1.22180000       0.06190000      -0.79660000
C        2.39790000      -0.84720000      -0.46240000
O        3.14920000      -0.58790000       0.70510000
C        2.48790000      -0.05640000       1.84700000
C        1.16320000      -0.70060000       2.19920000
C        0.06400000      -0.61380000       1.44790000
C       -0.02910000       0.10040000       0.12840000
H        0.36500000       2.11690000       1.07450000
H       -0.52160000       2.20660000      -0.47580000
H        0.94270000      -0.16230000      -1.83780000
H        1.99160000      -1.87390000      -0.44970000
H        3.12490000      -0.80050000      -1.28130000
H        3.19730000      -0.19890000       2.66680000
H        2.35560000       1.02550000       1.71570000
H        1.11910000      -1.25960000       3.13010000
H       -0.84270000      -1.10620000       1.79160000
H       -0.94520000      -0.19430000      -0.38610000
