17
Properties=species:S:1:pos:R:3 gdb_83933=T pbc="F F F"
O       -0.04490000       1.36830000      -0.06260000
C       -0.05120000      -0.01170000      -0.03050000
C       -0.43920000      -0.71060000       1.22070000
O       -1.00470000       0.14340000       2.17950000
C       -2.43160000       0.19520000       1.95380000
C       -2.62190000       0.03680000       0.43590000
C       -1.40310000      -0.77870000       0.02610000
C       -1.55080000      -2.00550000      -0.77390000
O       -2.59830000      -2.42860000      -1.20370000
H       -0.23300000       1.65550000       0.84350000
H        0.71440000      -0.45710000      -0.66030000
H        0.08500000      -1.57760000       1.61190000
H       -2.91270000      -0.62540000       2.50230000
H       -2.78740000       1.14590000       2.35730000
H       -3.53390000      -0.50360000       0.17610000
H       -2.63100000       1.00740000      -0.06830000
H       -0.59330000      -2.54030000      -0.97540000
