23
Properties=species:S:1:pos:R:3 gdb_122948=T pbc="F F F"
C       -0.00290000       1.55750000      -0.02540000
C        0.04130000       0.02560000      -0.05040000
C       -1.35840000      -0.58250000       0.04510000
O       -1.92830000      -0.18390000       1.28240000
C        0.75670000      -0.50170000      -1.29290000
O        2.09500000      -0.04590000      -1.28000000
C        2.85700000      -0.46290000      -2.39730000
C        4.28860000      -0.02030000      -2.13830000
O        4.79640000      -0.59310000      -0.95020000
H        1.00650000       1.97260000      -0.06420000
H       -0.55950000       1.94260000      -0.88930000
H       -0.50040000       1.91030000       0.88020000
H        0.60430000      -0.32580000       0.82440000
H       -1.97120000      -0.23550000      -0.80420000
H       -1.29360000      -1.68080000      -0.02280000
H       -2.83180000      -0.51030000       1.31760000
H        0.73620000      -1.60450000      -1.31490000
H        0.24840000      -0.14780000      -2.20700000
H        2.81560000      -1.55950000      -2.49820000
H        2.46920000      -0.01690000      -3.32810000
H        4.93260000      -0.34870000      -2.96080000
H        4.32160000       1.08060000      -2.10180000
H        4.12100000      -0.43650000      -0.27950000
