21
Properties=species:S:1:pos:R:3 gdb_109693=T pbc="F F F"
C       -0.28770000       1.06380000      -0.07980000
O        0.65060000       0.00960000       0.03990000
C        0.93570000      -0.63460000      -1.16310000
C        1.50150000      -2.01310000      -0.97690000
O        1.63840000      -2.48950000       0.32640000
C        0.11820000      -1.85300000      -1.59210000
C       -1.08310000      -2.27860000      -0.77470000
C        0.01370000      -2.08230000      -3.08780000
O       -0.00400000      -3.45390000      -3.45570000
H        0.07990000       1.84510000      -0.76030000
H       -1.25630000       0.70330000      -0.44970000
H       -0.41810000       1.49270000       0.91620000
H        1.33830000       0.02340000      -1.93510000
H        2.30670000      -2.34230000      -1.62880000
H        1.49930000      -1.73540000       0.91360000
H       -0.96810000      -2.00620000       0.27480000
H       -2.00380000      -1.81830000      -1.15260000
H       -1.21010000      -3.36710000      -0.80720000
H       -0.87230000      -1.55500000      -3.48030000
H        0.88830000      -1.66050000      -3.59550000
H       -0.78230000      -3.85730000      -3.05950000
