18
Properties=species:S:1:pos:R:3 gdb_71639=T pbc="F F F"
O       -0.07270000       1.38920000       0.03760000
C        0.03610000       0.00850000       0.03270000
C        0.62690000      -0.97180000       1.06810000
N        0.04670000      -1.91360000       0.00630000
C       -1.16580000      -0.94670000      -0.01010000
C       -2.02730000      -1.01360000      -1.25730000
O       -1.30420000      -1.43450000      -2.39720000
C        0.04300000      -1.00990000      -2.41640000
C        0.65320000      -0.94110000      -1.03000000
H        0.81130000       1.77310000       0.03970000
H        1.71510000      -1.04260000       1.15620000
H        0.13160000      -1.05620000       2.03900000
H       -1.76790000      -1.00780000       0.90160000
H       -2.83310000      -1.74280000      -1.12460000
H       -2.49090000      -0.02470000      -1.41650000
H        0.58040000      -1.73520000      -3.03640000
H        0.14660000      -0.01930000      -2.89430000
H        1.74680000      -0.99160000      -1.06580000
