19
Properties=species:S:1:pos:R:3 gdb_33772=T pbc="F F F"
C       -0.02860000      -1.21390000      -0.02970000
C       -0.02440000      -0.01110000      -0.00840000
C       -0.01100000       1.43470000       0.02620000
C       -0.22410000       2.17220000       1.39820000
C        0.68020000       3.29680000       0.81940000
C        1.36540000       2.19190000      -0.03310000
C       -0.14260000       4.23410000      -0.08140000
C       -0.99050000       3.42310000      -1.03430000
C       -0.93630000       2.09300000      -0.99240000
H       -0.03040000      -2.27550000      -0.04630000
H       -1.25420000       2.41260000       1.67030000
H        0.26790000       1.63670000       2.21300000
H        1.30350000       3.85670000       1.51940000
H        2.13170000       1.65970000       0.53480000
H        1.74040000       2.44960000      -1.02610000
H       -0.77920000       4.88890000       0.53040000
H        0.52340000       4.90500000      -0.64240000
H       -1.63180000       3.94400000      -1.73930000
H       -1.51960000       1.45690000      -1.64880000
