16
Properties=species:S:1:pos:R:3 gdb_70230=T pbc="F F F"
C       -0.04460000       1.53500000       0.02600000
C        0.06550000       0.03450000       0.02250000
C       -0.80180000      -0.84630000       0.90780000
C        0.68680000      -0.85030000       1.09830000
O        1.40470000      -1.85490000       0.40280000
C        1.16170000      -1.60880000      -0.92240000
N        0.45780000      -0.58430000      -1.22490000
C        1.73440000      -2.53130000      -1.83900000
C        2.22350000      -3.31670000      -2.60540000
H        0.88960000       1.99600000      -0.30880000
H       -0.84290000       1.85920000      -0.64900000
H       -0.27420000       1.90700000       1.02870000
H       -1.37380000      -0.33990000       1.67810000
H       -1.27910000      -1.71640000       0.46960000
H        1.17490000      -0.53860000       2.01270000
H        2.65410000      -4.00510000      -3.29070000
