21
Properties=species:S:1:pos:R:3 gdb_99276=T pbc="F F F"
C        0.10120000       1.39760000      -0.17470000
N       -0.14140000       0.01000000       0.17130000
C        0.64810000      -0.61240000       1.12060000
O        1.43150000      -0.00840000       1.83600000
N        0.46970000      -1.97770000       1.18570000
C        1.04650000      -2.74200000       2.27360000
C        1.24090000      -4.19360000       1.85090000
C        1.83090000      -5.04630000       2.97100000
O       -0.05720000      -4.65930000       1.46620000
H        0.81260000       1.51360000      -1.00410000
H       -0.83830000       1.88710000      -0.44840000
H        0.52120000       1.88840000       0.70350000
H       -0.54240000      -0.57310000      -0.54600000
H       -0.35770000      -2.38630000       0.77890000
H        2.00100000      -2.28190000       2.53470000
H        0.41030000      -2.71850000       3.17200000
H        1.91240000      -4.20940000       0.97810000
H        2.82250000      -4.68290000       3.25970000
H        1.18070000      -5.02740000       3.85110000
H        1.93920000      -6.08820000       2.64980000
H        0.03230000      -5.55400000       1.12450000
