18
Properties=species:S:1:pos:R:3 gdb_121683=T pbc="F F F"
O        0.07200000       1.41030000       0.00860000
C        0.07100000      -0.00620000       0.00130000
C       -1.38150000      -0.46520000       0.01250000
C       -1.50890000      -1.98700000       0.00600000
C       -2.94940000      -2.47320000       0.01720000
O       -3.90050000      -1.73790000       0.03070000
C       -3.10670000      -4.01010000       0.00990000
C       -4.49300000      -4.45840000       0.02130000
N       -5.58370000      -4.83630000       0.03010000
H        0.98430000       1.71390000       0.00130000
H        0.58190000      -0.40330000      -0.89230000
H        0.59840000      -0.41230000       0.88120000
H       -1.88120000      -0.05330000       0.89450000
H       -1.89750000      -0.04440000      -0.85570000
H       -1.01300000      -2.42450000      -0.87310000
H       -0.99650000      -2.43330000       0.87100000
H       -2.59660000      -4.41480000      -0.87290000
H       -2.57890000      -4.42500000       0.87750000
