23
Properties=species:S:1:pos:R:3 gdb_93857=T pbc="F F F"
C        0.58190000       1.67940000      -0.03810000
C        0.09220000       0.23100000       0.11000000
C        0.53330000      -0.67330000      -1.06210000
C        1.96770000      -1.13150000      -0.70010000
C        2.09290000      -0.99550000       0.84600000
O        3.08140000      -0.03540000       1.23070000
C        0.72720000      -0.48930000       1.29950000
C        0.48830000      -0.09860000       2.72730000
C       -0.11760000      -1.37200000       2.19080000
H        1.67280000       1.72580000      -0.09040000
H        0.16770000       2.14010000      -0.94160000
H        0.27220000       2.28500000       0.81970000
H       -0.99990000       0.23970000       0.20320000
H       -0.12950000      -1.54360000      -1.11690000
H        0.48500000      -0.16820000      -2.03150000
H        2.16870000      -2.15080000      -1.04210000
H        2.71710000      -0.48190000      -1.16330000
H        2.32850000      -1.96050000       1.31700000
H        3.93070000      -0.34100000       0.89540000
H        1.32410000      -0.17030000       3.41400000
H       -0.17450000       0.73860000       2.92110000
H       -1.18850000      -1.39510000       2.01470000
H        0.29800000      -2.31790000       2.52400000
