21
Properties=species:S:1:pos:R:3 gdb_80474=T pbc="F F F"
C       -0.85810000       1.19960000       0.05750000
C        0.00790000      -0.06320000      -0.01260000
C        0.76330000      -0.25600000      -1.32860000
C        2.03500000       0.51190000      -1.60340000
O        2.43880000       1.69300000      -0.99350000
C        2.12590000      -0.87600000      -1.01090000
C        2.21020000      -1.04300000       0.50240000
C        1.06710000      -0.19720000       1.11180000
O        1.50740000       1.11640000       1.50230000
H       -0.25820000       2.09770000      -0.10010000
H       -1.62800000       1.16730000      -0.71990000
H       -1.36060000       1.28840000       1.02600000
H       -0.65090000      -0.93520000       0.09820000
H        0.17350000      -0.58690000      -2.17860000
H        2.29980000       0.55430000      -2.65650000
H        2.18590000       1.67210000      -0.05470000
H        2.54860000      -1.67010000      -1.61850000
H        2.06050000      -2.09850000       0.75740000
H        3.18070000      -0.75090000       0.92380000
H        0.63540000      -0.67940000       1.99730000
H        2.19950000       1.01150000       2.16330000
