20
Properties=species:S:1:pos:R:3 gdb_76857=T pbc="F F F"
C       -0.45290000       1.55840000      -0.02720000
C       -0.03010000       0.10040000       0.00480000
C        0.97570000      -0.48100000      -1.05920000
O        1.67200000       0.41180000      -1.90170000
C        1.80460000      -1.01140000       0.14980000
C        2.97390000      -0.23640000       0.77080000
C        2.75510000       1.24760000       0.73110000
C        1.93140000       0.42080000       1.68770000
N        0.84020000      -0.40730000       1.12820000
H        0.38080000       2.24990000      -0.14580000
H       -1.15610000       1.72750000      -0.85050000
H       -0.97250000       1.81130000       0.90320000
H       -0.93860000      -0.51490000       0.01290000
H        0.53160000      -1.29220000      -1.65170000
H        1.08790000       0.65300000      -2.62740000
H        1.91180000      -2.09900000       0.19720000
H        3.92780000      -0.68170000       1.02260000
H        3.53240000       1.81610000       1.23500000
H        2.35900000       1.71750000      -0.15700000
H        1.95890000       0.60340000       2.75660000
