14
Properties=species:S:1:pos:R:3 gdb_4367=T pbc="F F F"
N        0.03190000       1.35800000       0.17230000
C        0.00360000      -0.01560000       0.05540000
C       -1.20600000      -0.73340000       0.05630000
N       -1.21460000      -2.06040000      -0.00250000
C       -0.04660000      -2.69000000      -0.06410000
C        1.16370000      -1.97340000      -0.06910000
N        2.38190000      -2.60830000      -0.18910000
N        1.18360000      -0.63900000      -0.00830000
H        0.90520000       1.78110000      -0.10370000
H       -0.78960000       1.85720000      -0.12970000
H       -2.16300000      -0.22150000       0.11140000
H       -0.05720000      -3.77540000      -0.11680000
H        2.42630000      -3.56770000       0.11540000
H        3.17310000      -2.04470000       0.08330000
