20
Properties=species:S:1:pos:R:3 gdb_127096=T pbc="F F F"
C       -0.19810000       1.40040000       0.00450000
N        0.27230000       0.02660000       0.03280000
C       -0.05910000      -0.71150000       1.23510000
C        0.15700000      -0.68650000      -1.16270000
C        0.05010000      -2.06010000      -1.33270000
N        0.03240000      -2.29030000      -2.67710000
C       -0.12830000      -3.56060000      -3.34700000
N        0.09590000      -1.15890000      -3.39080000
C        0.17270000      -0.18170000      -2.48810000
H        0.30810000       1.95600000      -0.78930000
H       -1.28660000       1.48790000      -0.15670000
H        0.04930000       1.88310000       0.95410000
H       -1.11420000      -1.03760000       1.27160000
H        0.57310000      -1.60220000       1.31180000
H        0.13820000      -0.08680000       2.11020000
H       -0.00950000      -2.86960000      -0.62500000
H       -1.15670000      -3.93130000      -3.26570000
H        0.11410000      -3.40980000      -4.39870000
H        0.55060000      -4.30470000      -2.92030000
H        0.24290000       0.84260000      -2.81930000
