15
Properties=species:S:1:pos:R:3 gdb_25076=T pbc="F F F"
N       -0.13820000       1.28200000      -0.01850000
C       -0.05670000       0.01680000      -0.02460000
O        1.09830000      -0.76030000      -0.02640000
C        0.74100000      -2.10530000      -0.03390000
C       -0.59880000      -2.19280000      -0.03650000
C       -1.75230000      -3.06760000      -0.04320000
C       -2.86290000      -2.30750000      -0.04150000
C       -2.53150000      -0.82720000      -0.03330000
N       -1.08590000      -0.88460000      -0.03070000
H        0.78660000       1.70330000      -0.01480000
H        1.54310000      -2.82010000      -0.03560000
H       -1.70720000      -4.14680000      -0.04870000
H       -3.88230000      -2.66910000      -0.04530000
H       -2.91900000      -0.29760000      -0.91500000
H       -2.92250000      -0.30650000       0.85220000
