16
Properties=species:S:1:pos:R:3 gdb_22628=T pbc="F F F"
O       -0.05240000       1.31150000      -0.04240000
N        0.04410000      -0.08760000       0.09930000
C       -1.08910000      -0.63450000       0.16390000
C       -2.58320000      -0.36900000       0.00650000
C       -2.56740000      -1.60190000      -0.93920000
C       -1.50550000      -2.10180000       0.12650000
O       -0.64930000      -3.16960000      -0.01830000
C       -2.40190000      -2.14310000       1.37900000
O       -3.13420000      -0.90440000       1.22410000
H        0.87360000       1.57790000      -0.05040000
H       -3.01830000       0.59460000      -0.23420000
H       -3.50190000      -2.16290000      -1.01320000
H       -2.12720000      -1.40000000      -1.91710000
H        0.07010000      -2.90320000      -0.60190000
H       -3.08830000      -2.99660000       1.38270000
H       -1.82040000      -2.13380000       2.30660000
