20
Properties=species:S:1:pos:R:3 gdb_103162=T pbc="F F F"
C       -0.05970000       1.43650000      -0.00190000
O        0.24010000       0.04770000       0.05240000
C        0.78530000      -0.50910000      -1.12020000
C        2.16500000       0.03830000      -1.46740000
C        0.65510000      -2.06230000      -1.10500000
C       -0.00980000      -2.72690000       0.07590000
O       -0.23840000      -1.98690000      -2.27690000
C       -0.18430000      -0.61600000      -2.29970000
N       -0.75370000       0.21730000      -3.04730000
H        0.84960000       2.05200000      -0.01580000
H       -0.67110000       1.68020000      -0.87750000
H       -0.61840000       1.66220000       0.90920000
H        2.83230000      -0.05880000      -0.60510000
H        2.59560000      -0.50960000      -2.31040000
H        2.10830000       1.09130000      -1.75410000
H        1.57550000      -2.57770000      -1.39610000
H       -0.91700000      -2.19310000       0.36270000
H       -0.26090000      -3.76250000      -0.17180000
H        0.67080000      -2.73110000       0.93280000
H       -1.35790000      -0.24590000      -3.72970000
