21
Properties=species:S:1:pos:R:3 gdb_64648=T pbc="F F F"
C       -0.01170000       1.61320000      -0.14510000
C        0.01350000       0.08350000      -0.05900000
C       -1.43050000      -0.41200000      -0.33850000
C       -2.33900000      -0.16570000       0.77680000
C       -3.06690000       0.03930000       1.71190000
C        1.19170000      -0.71350000      -0.73770000
C        2.13510000      -0.16820000       0.37510000
C        0.82550000      -0.59830000       1.10510000
C        0.90420000      -1.89230000       0.24300000
H        0.91780000       2.09580000       0.15550000
H       -0.23370000       1.93180000      -1.17060000
H       -0.80760000       2.00440000       0.49680000
H       -1.80520000       0.11250000      -1.22750000
H       -1.46120000      -1.47430000      -0.59170000
H       -3.72020000       0.21630000       2.52980000
H        1.40600000      -0.78110000      -1.80680000
H        3.01310000      -0.78270000       0.58850000
H        2.40330000       0.88640000       0.35770000
H        0.61030000      -0.53040000       2.17250000
H       -0.00040000      -2.48350000       0.10930000
H        1.75490000      -2.54590000       0.45070000
