19
Properties=species:S:1:pos:R:3 gdb_58928=T pbc="F F F"
C       -0.03000000       1.49430000      -0.17080000
C       -0.04620000      -0.02320000      -0.00270000
O        0.68050000      -0.45570000       1.14420000
C       -1.45390000      -0.56380000       0.04870000
O       -2.38490000      -0.20060000      -1.02280000
C       -3.15840000      -1.05360000      -0.12910000
C       -1.98550000      -2.03080000       0.18160000
C       -2.19520000      -1.90100000       1.70510000
C       -2.53850000      -0.48660000       1.18480000
H        0.99950000       1.85420000      -0.24390000
H       -0.57960000       1.78620000      -1.06930000
H       -0.51030000       1.98260000       0.68620000
H        0.46390000      -0.48780000      -0.85520000
H        0.36480000       0.05730000       1.89660000
H       -4.19920000      -1.26220000      -0.37470000
H       -1.67460000      -2.88710000      -0.41660000
H       -3.02620000      -2.47220000       2.12870000
H       -1.30230000      -1.99570000       2.32470000
H       -2.86560000       0.40440000       1.72240000
