17
Properties=species:S:1:pos:R:3 gdb_34857=T pbc="F F F"
C       -0.14090000      -1.33310000      -0.17590000
C       -0.05250000      -0.13970000      -0.05950000
C        0.01520000       1.30120000       0.04090000
C       -0.10210000       2.05650000       1.39810000
C        0.67880000       1.35460000       2.49750000
O        1.85390000       0.74450000       1.97570000
C        2.42890000       1.38780000       0.84390000
C        1.36140000       2.08420000       0.01520000
O        0.75680000       3.10170000       0.86190000
H       -0.20280000      -2.38960000      -0.26400000
H       -0.66800000       1.76900000      -0.67270000
H       -1.07660000       2.42860000       1.72340000
H        0.92750000       2.09910000       3.26940000
H        0.09170000       0.55160000       2.95610000
H        3.17050000       2.14160000       1.15000000
H        2.93580000       0.60540000       0.26870000
H        1.73370000       2.48170000      -0.93210000
