14
Properties=species:S:1:pos:R:3 gdb_384=T pbc="F F F"
C        0.19980000       1.65040000      -0.05620000
C       -0.07920000       0.13750000       0.01250000
C        0.53710000      -0.63350000      -1.15050000
O       -0.04820000      -0.14150000      -2.34800000
C        0.36820000      -0.41490000       1.34780000
O        1.12190000      -1.34390000       1.49770000
H        1.27550000       1.85120000      -0.00650000
H       -0.17880000       2.05000000      -0.99830000
H       -0.28370000       2.18290000       0.76880000
H       -1.17160000       0.00080000      -0.02460000
H        1.62850000      -0.49190000      -1.14490000
H        0.34990000      -1.70800000      -1.01860000
H        0.35050000      -0.60700000      -3.08860000
H       -0.05770000       0.12200000       2.22770000
