13
Properties=species:S:1:pos:R:3 gdb_129977=T pbc="F F F"
N       -0.06400000       1.32270000      -0.00170000
C       -0.06310000      -0.02810000       0.03160000
N       -1.06950000      -0.83510000      -0.18500000
C       -0.48400000      -2.05190000       0.03970000
C       -1.22830000      -3.35180000      -0.06060000
C       -1.75320000      -3.59850000      -1.40500000
N       -2.16830000      -3.80770000      -2.46190000
N        0.77830000      -2.03310000       0.37050000
O        1.07540000      -0.64540000       0.36860000
H        0.82590000       1.78740000      -0.07880000
H       -0.84170000       1.75110000      -0.47660000
H       -0.55790000      -4.16770000       0.22320000
H       -2.06750000      -3.34420000       0.64410000
