21
Properties=species:S:1:pos:R:3 gdb_52724=T pbc="F F F"
C       -0.12910000       1.50620000      -0.09710000
C       -0.05690000       0.05230000      -0.05380000
C        0.00640000      -1.14970000      -0.00850000
C        0.06970000      -2.61150000       0.01780000
C       -1.32480000      -3.21480000       0.28200000
C        0.71050000      -3.13860000      -1.28990000
C        0.98200000      -4.65310000      -1.28690000
C        1.81190000      -5.06500000      -2.48200000
O        1.49550000      -5.89780000      -3.29120000
H        0.48260000       1.95950000       0.69090000
H        0.22840000       1.89460000      -1.05720000
H       -1.15760000       1.85860000       0.03910000
H        0.72790000      -2.91030000       0.84740000
H       -1.75200000      -2.80230000       1.19940000
H       -2.00640000      -2.98170000      -0.54210000
H       -1.27160000      -4.30180000       0.39000000
H        0.05980000      -2.88050000      -2.13370000
H        1.65310000      -2.60230000      -1.44990000
H        1.55700000      -4.91250000      -0.38480000
H        0.06290000      -5.24380000      -1.28780000
H        2.78020000      -4.51710000      -2.57390000
