19
Properties=species:S:1:pos:R:3 gdb_81299=T pbc="F F F"
C       -0.16840000       1.40930000       0.05340000
N        0.05210000      -0.02890000      -0.00770000
C        0.85240000      -0.48970000      -1.19530000
C        2.16480000      -0.32820000      -0.38760000
C        1.21630000      -0.50990000       0.82430000
C        0.98720000      -2.00430000       1.05440000
O        1.06610000      -2.55660000       2.13220000
N        0.71390000      -2.65680000      -0.11940000
C        0.51270000      -1.96710000      -1.39000000
H        0.73280000       2.02960000      -0.09750000
H       -0.90140000       1.68920000      -0.71040000
H       -0.59170000       1.66320000       1.03020000
H        0.71050000       0.07740000      -2.11870000
H        2.96950000      -1.05260000      -0.53570000
H        2.56700000       0.68390000      -0.45040000
H        1.39700000       0.00270000       1.76860000
H        0.49350000      -3.63810000      -0.04080000
H       -0.53180000      -2.05290000      -1.71690000
H        1.15340000      -2.40630000      -2.16650000
