18
Properties=species:S:1:pos:R:3 gdb_74149=T pbc="F F F"
C       -0.03380000       1.50030000       0.03400000
C       -0.00810000       0.00980000      -0.02030000
C       -0.01800000      -0.79630000      -1.09150000
C        0.01760000      -2.19770000      -0.65110000
N        0.02370000      -3.30530000      -1.26960000
O        0.04920000      -2.19320000       0.72170000
C        0.03540000      -0.85870000       1.17900000
C        0.81430000      -0.56500000       2.43750000
C       -0.69500000      -0.59260000       2.47220000
H        0.85280000       1.89450000       0.54490000
H       -0.06630000       1.93050000      -0.96920000
H       -0.90770000       1.86270000       0.58820000
H       -0.04730000      -0.50270000      -2.13170000
H       -0.00240000      -3.13780000      -2.27360000
H        1.34420000      -1.40680000       2.86710000
H        1.32220000       0.38980000       2.51790000
H       -1.23320000       0.34300000       2.57670000
H       -1.17340000      -1.45290000       2.92510000
