18
Properties=species:S:1:pos:R:3 gdb_45778=T pbc="F F F"
N       -0.07530000       1.35450000       0.23240000
C        0.01960000       0.14270000      -0.12490000
C        1.30550000      -0.66990000      -0.18010000
C        1.20040000      -1.95000000      -0.95350000
C        0.03770000      -2.37410000      -1.43710000
C       -1.21140000      -1.62830000      -1.23180000
C       -2.21910000      -1.49860000      -2.35770000
C       -2.53580000      -2.34280000      -1.14810000
O       -1.14790000      -0.50010000      -0.38210000
H        0.84550000       1.71920000       0.47320000
H        2.09210000      -0.03070000      -0.59930000
H        1.61610000      -0.87440000       0.85530000
H        2.11100000      -2.51980000      -1.11000000
H       -0.04040000      -3.29200000      -2.01130000
H       -2.71040000      -0.53620000      -2.43730000
H       -2.00080000      -1.98770000      -3.30060000
H       -2.54020000      -3.42290000      -1.24330000
H       -3.24000000      -1.94050000      -0.42940000
