16
Properties=species:S:1:pos:R:3 gdb_67154=T pbc="F F F"
C        0.01210000       1.59830000       0.00640000
C       -0.03290000       0.10490000      -0.04630000
C        0.54080000      -0.88960000      -1.09010000
C        1.47620000      -1.41970000       0.01720000
N        0.62560000      -0.71960000       1.06220000
C       -0.60990000      -1.46370000       1.25170000
O       -0.88410000      -2.30560000       2.04870000
C       -1.26000000      -0.84170000      -0.00070000
O       -0.71300000      -1.61470000      -1.11390000
H        1.04590000       1.95840000       0.00150000
H       -0.50890000       2.03470000      -0.85150000
H       -0.46440000       1.96230000       0.92240000
H        0.91200000      -0.68750000      -2.09640000
H        1.55220000      -2.50190000       0.14460000
H        2.47470000      -0.97280000      -0.01180000
H       -2.32420000      -0.63060000      -0.11310000
