20
Properties=species:S:1:pos:R:3 gdb_117958=T pbc="F F F"
C       -0.11170000       0.81510000       0.55110000
N        0.17220000      -0.52170000       0.06540000
C        0.74020000      -0.76010000      -1.13420000
O        1.05710000       0.10480000      -1.94330000
C        0.96870000      -2.24170000      -1.49970000
O        1.68440000      -2.29640000      -2.70140000
C        1.73750000      -3.02420000      -0.42920000
O        0.89650000      -3.20840000       0.69800000
C        1.51840000      -3.92820000       1.74110000
H        0.08520000       1.51490000      -0.26150000
H       -1.15920000       0.90380000       0.85720000
H        0.52450000       1.07630000       1.40470000
H        0.05220000      -1.32070000       0.67380000
H       -0.02170000      -2.71590000      -1.60490000
H        1.73580000      -1.36600000      -2.98760000
H        2.02950000      -3.99450000      -0.85600000
H        2.65820000      -2.48830000      -0.14970000
H        1.82220000      -4.93080000       1.40680000
H        2.40890000      -3.40500000       2.12070000
H        0.79070000      -4.02860000       2.54960000
