23
Properties=species:S:1:pos:R:3 gdb_93227=T pbc="F F F"
C       -0.00410000       1.58580000       0.00310000
C        0.00650000       0.05380000      -0.00210000
C        0.63620000      -0.50400000      -1.28870000
C        0.65980000      -2.04410000      -1.30000000
C        1.31410000      -2.60150000      -0.04330000
O        2.21460000      -3.40860000      -0.08460000
C        0.75390000      -2.05550000       1.27100000
C        1.49540000      -2.60710000       2.48720000
C        0.73780000      -0.50990000       1.22640000
H        1.01600000       1.98530000      -0.03840000
H       -0.55150000       1.98210000      -0.85840000
H       -0.47720000       1.97650000       0.91000000
H       -1.03700000      -0.29470000       0.03940000
H        0.09580000      -0.13650000      -2.16840000
H        1.66430000      -0.12630000      -1.37610000
H       -0.37320000      -2.41840000      -1.33580000
H        1.18810000      -2.43950000      -2.17090000
H       -0.29680000      -2.38590000       1.30610000
H        2.54430000      -2.29570000       2.47700000
H        1.03840000      -2.24640000       3.41390000
H        1.48280000      -3.69940000       2.49280000
H        1.77460000      -0.14300000       1.22810000
H        0.27730000      -0.13180000       2.14700000
