21
Properties=species:S:1:pos:R:3 gdb_50625=T pbc="F F F"
O       -0.02500000      -0.08410000       0.03200000
C        0.01550000       1.11890000       0.00590000
C        1.28100000       1.95460000      -0.00250000
C        1.32840000       2.75340000      -1.32260000
C        2.64420000       3.51080000      -1.58080000
C        2.87010000       4.73160000      -0.72040000
C        2.85850000       4.76280000       0.61170000
C        2.61720000       3.58370000       1.52440000
C        1.30570000       2.81460000       1.27920000
H       -0.92550000       1.72120000      -0.01500000
H        2.12020000       1.24810000       0.02130000
H        1.17450000       2.04920000      -2.14970000
H        0.49080000       3.46190000      -1.35360000
H        3.48240000       2.80860000      -1.45880000
H        2.66130000       3.81090000      -2.63340000
H        3.07110000       5.65890000      -1.25200000
H        3.05060000       5.71420000       1.10260000
H        3.45700000       2.87690000       1.45010000
H        2.61610000       3.93290000       2.56190000
H        0.46810000       3.52350000       1.26210000
H        1.13710000       2.15000000       2.13570000
