16
Properties=species:S:1:pos:R:3 gdb_57585=T pbc="F F F"
C       -0.01490000       1.62030000      -0.11000000
C       -0.03810000       0.08120000      -0.09800000
C        0.65310000      -0.48150000       1.16790000
C       -1.47630000      -0.45410000      -0.11840000
O       -2.44850000       0.23670000       0.01780000
C        0.66200000      -0.44120000      -1.34690000
O        0.11280000      -1.01190000      -2.25520000
C        2.12030000      -0.18420000      -1.41490000
N        3.25760000       0.02050000      -1.46150000
H        1.01140000       1.99590000      -0.07940000
H       -0.51170000       2.01510000      -0.99950000
H       -0.55270000       1.99400000       0.76390000
H        0.17180000      -0.07110000       2.05970000
H        0.58780000      -1.57340000       1.21250000
H        1.70970000      -0.20110000       1.19010000
H       -1.55260000      -1.55640000      -0.22440000
