21
Properties=species:S:1:pos:R:3 gdb_119785=T pbc="F F F"
C        0.02750000       1.37320000      -0.02240000
O        0.00920000      -0.03250000       0.01390000
C        0.63150000      -0.61630000      -1.10640000
C        0.57780000      -2.09730000      -1.00380000
C        0.06450000      -2.90540000      -0.07200000
C        0.36800000      -4.31050000      -0.61630000
C        1.84880000      -4.11400000      -1.09220000
C        1.15370000      -3.07850000      -2.04230000
C       -0.01750000      -4.11760000      -2.12370000
H        1.05560000       1.76990000      -0.03840000
H       -0.50380000       1.76780000      -0.90360000
H       -0.47380000       1.73020000       0.88040000
H        0.14090000      -0.28040000      -2.04080000
H        1.68280000      -0.27710000      -1.18590000
H       -0.44380000      -2.65500000       0.84650000
H        0.04970000      -5.17700000      -0.03750000
H        2.56450000      -3.72710000      -0.36280000
H        2.25830000      -4.98060000      -1.62180000
H        1.64330000      -2.67450000      -2.92950000
H        0.21560000      -4.98460000      -2.75080000
H       -1.01700000      -3.73410000      -2.34230000
