17
Properties=species:S:1:pos:R:3 gdb_87353=T pbc="F F F"
C       -0.03470000       1.38480000       0.06260000
C        0.19000000      -0.10900000       0.06800000
C        1.56520000      -0.69360000       0.04650000
C        0.73220000      -0.79730000       1.31670000
O        1.02610000       0.03680000       2.41540000
C        2.18880000      -0.19720000       3.07780000
O        2.51050000       0.43290000       4.03640000
C        0.14590000      -2.11720000       1.67760000
O       -0.14980000      -2.96050000       0.86700000
H        0.73380000       1.90870000       0.63530000
H       -0.01410000       1.76160000      -0.96490000
H       -1.00670000       1.63790000       0.49620000
H       -0.56990000      -0.70560000      -0.42870000
H        1.73250000      -1.62420000      -0.48410000
H        2.40570000      -0.00850000       0.08540000
H        2.77870000      -1.01600000       2.62650000
H       -0.00960000      -2.26190000       2.76900000
