13
Properties=species:S:1:pos:R:3 gdb_132441=T pbc="F F F"
C       -0.03200000       1.50530000      -0.00130000
C       -0.00900000       0.00790000      -0.05260000
N       -0.04380000      -0.62440000      -1.18190000
C       -0.02170000      -1.99730000      -1.20370000
C        0.03610000      -2.68090000      -0.04450000
F        0.06190000      -3.98730000       0.05440000
O        0.07410000      -2.09750000       1.14410000
C        0.05470000      -0.68600000       1.24680000
O        0.09030000      -0.20040000       2.33830000
H        0.86030000       1.88830000       0.50570000
H       -0.08070000       1.90480000      -1.01450000
H       -0.89130000       1.85900000       0.57850000
H       -0.05150000      -2.50470000      -2.15750000
