13
Properties=species:S:1:pos:R:3 gdb_15101=T pbc="F F F"
N        0.07450000      -3.66640000       0.32870000
C        0.05260000      -2.51120000       0.20800000
C        0.02480000      -1.15400000       0.06270000
C       -0.00610000       0.04640000      -0.06640000
C       -0.02110000       1.49120000      -0.23410000
C        1.37680000       2.09420000      -0.26510000
C        1.61900000       3.45900000       0.21410000
O        1.99350000       2.32020000       0.99430000
H       -0.54330000       1.73980000      -1.16780000
H       -0.58790000       1.95020000       0.58460000
H        2.03710000       1.68030000      -1.02710000
H        2.44280000       4.03790000      -0.19890000
H        0.79050000       4.04430000       0.61100000
