17
Properties=species:S:1:pos:R:3 gdb_80811=T pbc="F F F"
N        0.23140000       1.47810000      -0.05210000
C        0.06270000       0.06080000       0.01630000
C       -0.05540000      -0.63840000       1.40140000
C       -1.53520000      -0.16350000       1.48450000
C       -1.36740000      -0.67940000       0.02290000
C       -2.35550000      -0.69570000      -1.02000000
N       -3.13690000      -0.67700000      -1.87350000
C       -0.62270000      -1.88880000       0.64460000
O        0.18150000      -2.61320000      -0.23910000
H        0.20030000       1.80460000      -1.01110000
H       -0.45690000       1.99960000       0.47730000
H        0.76460000      -0.41490000      -0.66640000
H        0.68110000      -0.62820000       2.20430000
H       -2.20870000      -0.74370000       2.12040000
H       -1.71890000       0.90300000       1.60910000
H       -1.25640000      -2.54210000       1.25630000
H        0.66200000      -3.28070000       0.26000000
