12
Properties=species:S:1:pos:R:3 gdb_4407=T pbc="F F F"
N        0.07030000       1.34700000       0.14560000
C       -0.05810000      -0.00460000       0.05040000
C       -1.23260000      -0.71400000       0.01960000
N       -1.22080000      -2.06890000      -0.01910000
C       -0.08710000      -2.70610000      -0.02980000
C        1.20890000      -2.05790000      -0.00800000
O        2.30590000      -2.53760000      -0.02240000
O        1.12040000      -0.63430000       0.03100000
H        0.96960000       1.73290000      -0.09660000
H       -0.73180000       1.91130000      -0.08070000
H       -2.19090000      -0.21000000       0.03110000
H       -0.08210000      -3.79070000      -0.06090000
