14
Properties=species:S:1:pos:R:3 gdb_28404=T pbc="F F F"
N        0.03740000       1.33370000      -0.00430000
C       -0.02600000      -0.03110000       0.01420000
N       -1.15050000      -0.66580000       0.08170000
C       -1.12410000      -2.04680000       0.16510000
C        0.03400000      -2.72550000       0.17170000
O        0.17280000      -4.05950000       0.26250000
O        1.23370000      -2.08210000       0.08160000
C        1.28580000      -0.70970000      -0.01930000
N        2.37980000      -0.07850000      -0.14450000
H        0.90980000       1.73210000      -0.31430000
H       -0.81580000       1.81840000      -0.23050000
H       -2.06800000      -2.57000000       0.22880000
H        1.11380000      -4.26810000       0.22060000
H        3.18260000      -0.70660000      -0.16170000
