13
Properties=species:S:1:pos:R:3 gdb_1453=T pbc="F F F"
C       -0.34050000       1.31760000      -0.06660000
O       -0.06040000      -0.09040000      -0.11830000
C        0.91060000      -0.45080000      -0.97280000
O        1.52140000       0.31840000      -1.67260000
C        1.13860000      -1.94830000      -0.95230000
C        1.30810000      -2.50790000      -2.35950000
O        0.90980000      -3.59150000      -2.69230000
H        0.54970000       1.87490000       0.23450000
H       -0.66880000       1.67850000      -1.04420000
H       -1.13390000       1.43280000       0.67120000
H        2.09160000      -2.11760000      -0.43100000
H        0.35600000      -2.48620000      -0.41720000
H        1.84640000      -1.83170000      -3.05450000
