21
Properties=species:S:1:pos:R:3 gdb_39622=T pbc="F F F"
C        0.11880000       1.40700000      -0.45690000
C        1.45700000       1.58770000       0.32620000
C        1.28340000       0.17290000       0.86100000
C       -0.12570000       0.06280000       0.29890000
C        2.09060000      -0.66850000       1.48970000
C        1.79650000      -2.09710000       1.89610000
C        3.21330000      -2.65220000       2.11030000
O        3.97330000      -1.55060000       2.58950000
C        3.52630000      -0.38900000       1.90020000
H       -0.63300000       2.18510000      -0.31150000
H        0.27150000       1.26810000      -1.52930000
H        2.35410000       1.77920000      -0.27250000
H        1.40450000       2.36070000       1.10210000
H       -0.90980000       0.13200000       1.06210000
H       -0.34030000      -0.81610000      -0.31850000
H        1.23260000      -2.12950000       2.83710000
H        1.22320000      -2.64930000       1.14570000
H        3.27460000      -3.44960000       2.85520000
H        3.62710000      -3.03020000       1.16050000
H        4.15720000      -0.19090000       1.01620000
H        3.63000000       0.46580000       2.57830000
