13
Properties=species:S:1:pos:R:3 gdb_14657=T pbc="F F F"
C       -0.04370000       1.55840000       0.05440000
C        0.01200000       0.01920000      -0.01550000
C        0.68790000      -0.47370000      -1.20310000
C        1.25470000      -0.87040000      -2.19940000
C        1.88560000      -1.31240000      -3.30850000
C        2.45390000      -1.71030000      -4.30760000
C        3.08880000      -2.15450000      -5.42380000
N        3.63270000      -2.53510000      -6.37980000
H        0.96250000       1.98420000       0.06490000
H       -0.57900000       1.96790000      -0.80570000
H       -0.56160000       1.86930000       0.96550000
H        0.52230000      -0.37670000       0.87210000
H       -1.00520000      -0.39290000       0.00940000
