16
Properties=species:S:1:pos:R:3 gdb_69570=T pbc="F F F"
C       -0.08220000       1.54380000       0.05300000
C        0.11760000       0.06330000      -0.00030000
N       -0.76510000      -0.91300000       0.72480000
C        0.68550000      -0.92730000       0.99340000
C        1.29350000      -1.75580000      -0.11890000
C        2.59580000      -2.42410000      -0.20890000
O        1.36630000      -3.15720000      -0.20780000
C        0.70510000      -0.76020000      -1.14070000
O        0.83070000      -0.59600000      -2.31780000
H        0.79890000       2.06910000      -0.32810000
H       -0.93830000       1.84070000      -0.56170000
H       -0.26670000       1.88230000       1.07800000
H       -1.20980000      -0.37910000       1.47400000
H        1.09730000      -0.72060000       1.97270000
H        3.13220000      -2.40950000      -1.15580000
H        3.20610000      -2.52940000       0.68700000
