18
Properties=species:S:1:pos:R:3 gdb_125521=T pbc="F F F"
C       -0.01370000       1.47010000      -0.04570000
C        0.01490000      -0.02270000       0.01790000
N       -0.01430000      -0.77910000      -1.08390000
N        0.00580000      -2.02810000      -0.62280000
C        0.06140000      -3.17520000      -1.50710000
C        1.49960000      -3.53410000      -1.88240000
O        1.41640000      -4.65380000      -2.74460000
N        0.05890000      -2.14930000       0.69870000
C        0.06120000      -0.88680000       1.12700000
H        0.85110000       1.90880000       0.46280000
H       -0.00390000       1.79880000      -1.08680000
H       -0.91220000       1.87460000       0.43260000
H       -0.41070000      -4.01460000      -0.99450000
H       -0.50830000      -2.93490000      -2.40630000
H        1.97080000      -2.66860000      -2.37130000
H        2.06560000      -3.75810000      -0.96600000
H        2.30780000      -4.90800000      -2.99900000
H        0.08700000      -0.65960000       2.18130000
