14
Properties=species:S:1:pos:R:3 gdb_22474=T pbc="F F F"
O       -0.07140000       1.45250000       0.01050000
C       -0.03550000       0.03270000       0.00280000
C       -1.39490000      -0.49080000       0.01290000
C       -2.50390000      -0.96190000       0.02090000
C       -3.83750000      -1.46520000       0.03080000
N       -3.99020000      -2.75270000       0.02530000
O       -5.32280000      -3.11280000       0.03600000
C       -4.91030000      -0.52360000       0.04620000
C       -5.79750000       0.28840000       0.05910000
H        0.83990000       1.76280000       0.00450000
H        0.48540000      -0.35330000      -0.88900000
H        0.50210000      -0.36250000       0.88060000
H       -5.27740000      -4.07590000       0.03030000
H       -6.58210000       1.00430000       0.07060000
