13
Properties=species:S:1:pos:R:3 gdb_130963=T pbc="F F F"
O        0.09570000      -0.13550000       0.27810000
C        0.09800000       0.91660000      -0.29660000
C        1.17610000       1.97640000      -0.07250000
N        1.24010000       2.94500000      -1.13640000
N        1.63540000       2.61700000      -2.39900000
N        1.59630000       3.66410000      -3.11620000
N        1.17380000       4.69140000      -2.33400000
C        0.92430000       4.29620000      -1.03170000
O        0.54400000       4.92070000      -0.06830000
H       -0.69340000       1.20770000      -1.02170000
H        0.92720000       2.54110000       0.83420000
H        2.14160000       1.48640000       0.07780000
H        1.08200000       5.61730000      -2.71680000
