20
Properties=species:S:1:pos:R:3 gdb_97909=T pbc="F F F"
C        0.12930000       1.17930000      -0.49980000
C       -0.24030000       0.31900000       0.72240000
C       -1.54650000      -0.32020000       0.60010000
C       -2.62880000      -0.83240000       0.46970000
C       -3.94010000      -1.46950000       0.32630000
N       -3.87400000      -2.87660000      -0.04040000
C       -3.29690000      -3.81120000       0.90910000
C       -4.27670000      -3.30320000      -1.27210000
O       -4.23180000      -4.44660000      -1.67260000
H        1.11440000       1.63390000      -0.36060000
H        0.15430000       0.57230000      -1.40860000
H       -0.60160000       1.97880000      -0.64760000
H        0.52450000      -0.45350000       0.87300000
H       -0.22350000       0.93840000       1.62830000
H       -4.50300000      -1.36710000       1.26530000
H       -4.52510000      -0.95150000      -0.44290000
H       -3.88020000      -3.82810000       1.83780000
H       -3.31270000      -4.79970000       0.45070000
H       -2.26600000      -3.53060000       1.15040000
H       -4.67030000      -2.46690000      -1.88370000
