18
Properties=species:S:1:pos:R:3 gdb_10199=T pbc="F F F"
C       -0.01060000       1.36200000       0.02500000
O       -0.01980000      -0.04560000      -0.01030000
C        0.64540000      -0.57060000      -1.13710000
C        0.57230000      -2.10500000      -1.07540000
C       -0.88270000      -2.59580000      -1.12670000
O       -0.87840000      -3.98790000      -0.86600000
C        1.38280000      -2.68260000      -2.14390000
C        2.05150000      -3.11240000      -3.04520000
H        1.01490000       1.76180000       0.06040000
H       -0.51720000       1.79590000      -0.85150000
H       -0.54150000       1.66980000       0.92900000
H        0.18190000      -0.20820000      -2.07030000
H        1.69970000      -0.25410000      -1.15200000
H        0.97990000      -2.41720000      -0.10530000
H       -1.45620000      -2.04060000      -0.37340000
H       -1.30360000      -2.36950000      -2.11900000
H       -1.78690000      -4.30080000      -0.89520000
H        2.64270000      -3.51580000      -3.82940000
