18
Properties=species:S:1:pos:R:3 gdb_6624=T pbc="F F F"
C       -0.03390000       1.49330000      -0.01550000
C       -0.00430000       0.03820000       0.03440000
C        0.03550000      -1.16460000       0.07740000
C        0.05270000      -2.62230000       0.12590000
C       -1.35060000      -3.23160000      -0.02090000
C       -1.34840000      -4.75380000       0.02790000
C       -2.70050000      -5.43140000      -0.11060000
O       -0.32660000      -5.38640000       0.16900000
H        0.57460000       1.87700000      -0.84210000
H       -1.05400000       1.86800000      -0.15620000
H        0.35340000       1.93260000       0.91060000
H        0.69970000      -3.02400000      -0.66220000
H        0.49490000      -2.96890000       1.06690000
H       -2.01810000      -2.85670000       0.76590000
H       -1.81330000      -2.91180000      -0.96360000
H       -3.17050000      -5.15530000      -1.06110000
H       -2.57900000      -6.51410000      -0.06180000
H       -3.37710000      -5.09980000       0.68500000
