19
Properties=species:S:1:pos:R:3 gdb_80523=T pbc="F F F"
C        0.14530000       1.63380000      -0.40150000
C        0.23900000       0.13270000      -0.22740000
C        1.49050000      -0.64220000      -0.36580000
O        2.62410000       0.04270000       0.13790000
C        2.10560000      -0.03570000       1.50950000
C        2.20400000       1.24410000       2.31020000
C        0.77510000      -0.60090000       1.01160000
C        0.02980000      -1.65950000       1.69300000
O        0.29170000      -2.06610000       2.80290000
H        1.12570000       2.09860000      -0.28810000
H       -0.21980000       1.86440000      -1.40770000
H       -0.54600000       2.08440000       0.31700000
H       -0.61560000      -0.41970000      -0.61970000
H        1.65770000      -1.47970000      -1.03500000
H        2.64640000      -0.83650000       2.02670000
H        1.62860000       2.06160000       1.87430000
H        1.83160000       1.05670000       3.32250000
H        3.25070000       1.55550000       2.38660000
H       -0.81930000      -2.08380000       1.10850000
