21
Properties=species:S:1:pos:R:3 gdb_92374=T pbc="F F F"
C       -0.19440000       1.52520000      -0.01910000
C        0.00640000       0.01960000      -0.00270000
O        0.83630000      -0.39470000      -1.11910000
C        1.91810000      -1.14870000      -0.55640000
C        2.81940000      -0.16460000       0.19660000
O        2.01010000       0.19630000       1.33380000
C        0.77840000      -0.55000000       1.21490000
C        0.06030000      -0.54210000       2.54310000
C        1.26110000      -1.88520000       0.61700000
H        0.74310000       2.04160000       0.19820000
H       -0.55690000       1.84140000      -1.00090000
H       -0.93770000       1.82240000       0.72850000
H       -0.96800000      -0.48450000      -0.09330000
H        2.39640000      -1.73010000      -1.34430000
H        3.76210000      -0.61290000       0.53790000
H        3.03730000       0.71990000      -0.41100000
H       -0.17550000       0.48100000       2.85030000
H       -0.87420000      -1.10750000       2.47930000
H        0.68870000      -0.99050000       3.31740000
H        0.45510000      -2.55020000       0.30120000
H        1.95940000      -2.40990000       1.27260000
