18
Properties=species:S:1:pos:R:3 gdb_22152=T pbc="F F F"
C       -0.35170000       1.48060000      -0.11790000
C       -0.01350000       0.02460000       0.06470000
C        0.15770000      -0.54740000       1.44840000
C        1.45360000      -0.06750000       2.11120000
O        1.49710000      -0.48420000       3.48060000
C        2.28830000      -1.52710000       3.79820000
O        2.36000000      -1.97080000       4.90370000
N        0.14980000      -0.79580000      -0.90280000
O       -0.01700000      -0.16730000      -2.14450000
H        0.43460000       1.99430000      -0.68090000
H       -1.26780000       1.58110000      -0.70850000
H       -0.49050000       1.98500000       0.84040000
H       -0.68380000      -0.24820000       2.08460000
H        0.16470000      -1.63880000       1.38670000
H        2.32560000      -0.45220000       1.56780000
H        1.51600000       1.02420000       2.12320000
H        2.86050000      -1.91020000       2.92980000
H        0.10740000      -0.89680000      -2.76090000
