17
Properties=species:S:1:pos:R:3 gdb_30676=T pbc="F F F"
O        0.00610000       1.43560000       0.09450000
C       -0.06110000       0.05290000       0.34900000
C       -1.41940000      -0.50810000      -0.11600000
O       -1.61610000      -0.13340000      -1.46820000
C       -1.48750000      -2.00160000       0.00440000
N       -1.35620000      -2.80500000      -1.02840000
C       -1.43150000      -4.08420000      -0.52380000
C       -1.60670000      -4.04860000       0.83190000
N       -1.63930000      -2.70680000       1.15880000
H       -0.28980000       1.53720000      -0.82000000
H        0.73780000      -0.50390000      -0.16770000
H        0.06950000      -0.09000000       1.42830000
H       -2.20940000      -0.03220000       0.48270000
H       -1.46020000      -0.93680000      -1.99020000
H       -1.35860000      -4.94900000      -1.16470000
H       -1.71310000      -4.81950000       1.57630000
H       -1.77250000      -2.32400000       2.08000000
