14
Properties=species:S:1:pos:R:3 gdb_21017=T pbc="F F F"
C        0.04410000       1.43560000       0.02780000
N       -0.00830000      -0.01550000       0.00910000
C       -1.14740000      -0.72910000      -0.19550000
N       -1.23630000      -2.01380000      -0.21940000
C       -0.04860000      -2.73800000      -0.01560000
N        0.03760000      -4.01480000      -0.00870000
C        1.15740000      -1.93170000       0.20130000
N        1.18840000      -0.64400000       0.21510000
H        0.71520000       1.80030000      -0.75470000
H       -0.95860000       1.82940000      -0.14570000
H        0.40780000       1.78890000       0.99660000
H       -2.04050000      -0.12420000      -0.34840000
H       -0.89110000      -4.40980000      -0.17430000
H        2.10100000      -2.44290000       0.36370000
