23
Properties=species:S:1:pos:R:3 gdb_80564=T pbc="F F F"
C        0.20100000       1.65780000       0.14450000
C        0.17360000       0.14410000       0.11650000
C        1.32330000      -0.74200000      -0.32290000
C        2.73730000      -0.18120000      -0.37430000
C        3.11200000       0.26930000       1.06920000
O        3.26140000       1.68300000       1.20960000
C        1.95850000      -0.19370000       1.99270000
C        0.84520000      -0.77390000       1.11900000
C        0.06340000      -1.93670000       1.68830000
H        1.16470000       2.05790000       0.46370000
H       -0.02130000       2.06210000      -0.85030000
H       -0.56440000       2.04200000       0.82900000
H       -0.79000000      -0.24520000      -0.20970000
H        1.09020000      -1.56240000      -0.99550000
H        3.42540000      -0.96120000      -0.71830000
H        2.84250000       0.66210000      -1.06830000
H        4.05390000      -0.20800000       1.37360000
H        3.95750000       1.96660000       0.60840000
H        2.31300000      -0.97090000       2.67840000
H        1.63420000       0.64990000       2.61060000
H       -0.51260000      -1.63800000       2.57290000
H       -0.64540000      -2.33520000       0.95530000
H        0.72780000      -2.75590000       1.99050000
