14
Properties=species:S:1:pos:R:3 gdb_105142=T pbc="F F F"
N       -0.18900000       1.42260000       0.10670000
C        0.36910000       0.11680000      -0.21360000
C        0.97270000      -0.47830000       1.04490000
O        0.04490000      -1.03600000       1.98420000
C        0.93570000      -1.93860000       1.33480000
C        0.36110000      -2.87390000       0.39130000
N       -0.07260000      -3.64220000      -0.35500000
C        2.06220000       0.27610000       1.64520000
N        2.95620000       0.84730000       2.10140000
H       -0.40160000       1.93760000      -0.73950000
H       -1.05450000       1.32010000       0.62640000
H       -0.34320000      -0.61420000      -0.62310000
H        1.17020000       0.24560000      -0.94940000
H        1.71440000      -2.35740000       1.96870000
