15
Properties=species:S:1:pos:R:3 gdb_70045=T pbc="F F F"
C       -0.00630000       1.50370000      -0.08980000
C        0.06230000       0.01260000       0.03340000
C       -0.82360000      -0.83110000       0.89770000
C        0.67710000      -0.84560000       1.14090000
N        1.40920000      -1.89420000       0.48040000
C        1.21640000      -1.70750000      -0.76740000
O        0.48700000      -0.63610000      -1.17280000
C        1.73160000      -2.54250000      -1.81130000
N        2.14390000      -3.21190000      -2.65790000
H        0.95370000       1.91330000      -0.41700000
H       -0.77430000       1.80160000      -0.81060000
H       -0.26090000       1.94510000       0.87730000
H       -1.41790000      -0.29910000       1.63210000
H       -1.28440000      -1.72090000       0.48210000
H        1.08880000      -0.47440000       2.07110000
