20
Properties=species:S:1:pos:R:3 gdb_111594=T pbc="F F F"
C        0.11350000       1.63490000       0.06170000
C        0.03310000       0.11030000       0.02680000
N        0.62740000      -0.42260000      -1.20090000
C       -0.27920000      -0.39320000      -2.40620000
C        0.70890000      -0.89280000      -3.47400000
C        0.82220000      -2.28190000      -2.81460000
O       -0.53600000      -2.78820000      -2.99310000
C       -0.89410000      -1.83010000      -1.99740000
C        0.48380000      -1.88950000      -1.31400000
H        1.15100000       1.96370000      -0.04460000
H       -0.46670000       2.08500000      -0.75050000
H       -0.28320000       2.02050000       1.00600000
H        0.60360000      -0.30360000       0.86750000
H       -1.01520000      -0.20950000       0.17520000
H       -0.87010000       0.50330000      -2.58180000
H        0.30010000      -0.98310000      -4.48190000
H        1.62490000      -0.30120000      -3.46720000
H        1.59880000      -2.98470000      -3.10960000
H       -1.88990000      -1.94240000      -1.57330000
H        0.78250000      -2.53800000      -0.49130000
