14
Properties=species:S:1:pos:R:3 gdb_129208=T pbc="F F F"
N        0.21980000       1.37980000      -0.43920000
C        0.12960000       0.12150000      -0.21520000
N        1.21820000      -0.77190000      -0.18820000
N        1.20980000      -2.08850000       0.03630000
C        0.05060000      -2.64020000       0.26270000
C       -1.16230000      -1.89050000       0.27440000
C       -1.14180000      -0.55120000       0.04470000
C       -2.40570000       0.23520000       0.05590000
O       -3.48660000      -0.26800000       0.26580000
H        1.18160000       1.67980000      -0.60030000
H        2.14100000      -0.39600000      -0.35770000
H        0.06430000      -3.70840000       0.44250000
H       -2.11530000      -2.37340000       0.46550000
H       -2.28320000       1.31400000      -0.14070000
