15
Properties=species:S:1:pos:R:3 gdb_2450=T pbc="F F F"
O        0.00940000       0.45800000       0.99510000
C       -0.01390000       1.38450000       0.22880000
C       -1.28340000       2.05450000      -0.32530000
C       -0.81890000       3.36360000      -0.92920000
C       -0.05810000       4.30180000      -0.02580000
C        0.70400000       3.38500000      -0.94960000
C        1.22110000       2.08950000      -0.35890000
H       -1.70910000       1.38910000      -1.08800000
H       -2.03130000       2.14890000       0.46810000
H       -1.38280000       3.78720000      -1.75170000
H       -0.07620000       5.35820000      -0.26950000
H       -0.04090000       4.09580000       1.04170000
H        1.23360000       3.82380000      -1.78690000
H        1.98710000       2.20510000       0.41410000
H        1.64450000       1.43600000      -1.13300000
