19
Properties=species:S:1:pos:R:3 gdb_92832=T pbc="F F F"
C       -0.05190000       1.53970000      -0.06070000
C       -0.01000000       0.01200000       0.00410000
C        0.99400000      -0.58500000      -1.06200000
N        2.33160000      -0.68050000      -0.39470000
C        2.03190000      -0.71670000       0.83600000
N        2.57980000      -0.45040000       2.09180000
C        1.26780000       0.16830000       2.51630000
C        0.60490000      -0.57420000       1.29000000
O       -0.10230000      -1.74420000       1.64360000
H        0.95080000       1.97200000       0.02890000
H       -0.46440000       1.86840000      -1.01970000
H       -0.67760000       1.95930000       0.73360000
H       -1.01730000      -0.39260000      -0.12550000
H        0.66710000      -1.56770000      -1.42220000
H        1.08640000       0.07110000      -1.93290000
H        3.45530000       0.05400000       2.17390000
H        0.92480000      -0.16040000       3.50010000
H        1.26600000       1.26030000       2.45230000
H        0.47920000      -2.30070000       2.17450000
