18
Properties=species:S:1:pos:R:3 gdb_81846=T pbc="F F F"
C       -0.54860000       1.43970000       0.37140000
N       -0.10280000       0.07340000       0.14740000
C        0.27570000      -0.34560000      -1.19890000
C        1.59690000       0.24650000      -1.65340000
C        1.59870000      -0.89330000      -0.67950000
O        2.30390000      -2.03820000      -0.95570000
C        1.17170000      -0.43720000       0.73690000
C        2.12040000       0.50400000       1.43890000
O        2.70080000       0.21950000       2.45730000
H        0.10750000       2.22000000      -0.04830000
H       -1.53780000       1.56160000      -0.08220000
H       -0.65110000       1.61880000       1.44650000
H       -0.45780000      -0.75550000      -1.88450000
H        1.90110000      -0.06300000      -2.64870000
H        1.89800000       1.25490000      -1.38730000
H        1.85340000      -2.78520000      -0.54420000
H        0.98350000      -1.28220000       1.41110000
H        2.28730000       1.48390000       0.94220000
