21
Properties=species:S:1:pos:R:3 gdb_121409=T pbc="F F F"
C       -0.24500000       1.38540000      -0.69750000
O       -0.24640000      -0.01720000      -0.81490000
C        0.92810000      -0.61240000      -0.31260000
C        0.82130000      -2.11550000      -0.52840000
C        0.73420000      -2.52120000      -2.00280000
C        0.85280000      -4.04280000      -2.10480000
O        2.01550000      -4.49720000      -1.41990000
C        2.00050000      -4.08700000      -0.08100000
O        1.98190000      -2.69050000       0.06690000
H       -0.16560000       1.70690000       0.35290000
H        0.58620000       1.84090000      -1.25850000
H       -1.19010000       1.74920000      -1.10790000
H        1.82240000      -0.22790000      -0.83070000
H        1.05340000      -0.40520000       0.76230000
H       -0.07740000      -2.48150000      -0.00150000
H       -0.20640000      -2.16820000      -2.43480000
H        1.56130000      -2.05520000      -2.55050000
H       -0.04330000      -4.52330000      -1.67530000
H        0.95180000      -4.37650000      -3.14070000
H        1.12300000      -4.52450000       0.43520000
H        2.92510000      -4.44440000       0.37670000
