16
Properties=species:S:1:pos:R:3 gdb_132551=T pbc="F F F"
C        0.00390000       1.52280000      -0.02640000
C        0.00880000       0.01890000      -0.00320000
C       -0.01030000      -0.73180000      -1.17330000
N       -0.00700000      -2.06820000      -1.20060000
C        0.01610000      -2.63370000      -0.01100000
F        0.01980000      -3.95500000      -0.00410000
N        0.03610000      -2.06220000       1.17930000
C        0.03260000      -0.72360000       1.19130000
C        0.05490000      -0.05770000       2.53800000
H        0.89130000       1.93940000       0.46390000
H       -0.01460000       1.89560000      -1.05390000
H       -0.86880000       1.93410000       0.49360000
H       -0.02920000      -0.23530000      -2.14170000
H        0.93310000       0.58980000       2.64220000
H       -0.82530000       0.58090000       2.67540000
H        0.07340000      -0.81340000       3.32330000
