19
Properties=species:S:1:pos:R:3 gdb_61853=T pbc="F F F"
C        0.02470000       1.58630000      -0.09330000
C        0.01920000       0.06530000       0.00670000
O        0.72940000      -0.32730000       1.20170000
C        1.97320000      -0.82590000       1.07810000
O        2.64180000      -1.13850000       2.01660000
C       -1.37740000      -0.52920000       0.10710000
C       -2.20420000      -0.53770000      -1.19960000
O       -2.16310000      -1.97480000      -1.27140000
C       -1.47000000      -2.06570000      -0.00850000
H        1.04650000       1.96630000      -0.17900000
H       -0.53700000       1.91590000      -0.97270000
H       -0.43180000       2.02720000       0.79760000
H        0.53220000      -0.37020000      -0.86340000
H        2.29690000      -0.91770000       0.02220000
H       -1.89010000      -0.10590000       0.97360000
H       -3.22870000      -0.15690000      -1.10680000
H       -1.73210000      -0.06770000      -2.07280000
H       -0.51490000      -2.59810000      -0.09810000
H       -2.07740000      -2.55810000       0.75980000
