17
Properties=species:S:1:pos:R:3 gdb_50082=T pbc="F F F"
O       -0.26450000       0.26650000       0.51530000
C        0.37110000       0.67140000      -0.42550000
C        1.39090000       1.76430000      -0.27320000
O        2.30290000       1.95970000      -1.36350000
C        1.40370000       3.01680000      -1.06760000
C        0.39050000       3.39590000      -2.11560000
C        0.97370000       3.72780000      -3.51410000
C        0.20000000       2.47640000      -3.97120000
O       -0.34710000       2.27930000      -2.64490000
H        0.27930000       0.25570000      -1.44350000
H        1.83480000       1.80480000       0.72190000
H        1.86930000       3.88230000      -0.58750000
H       -0.28030000       4.15720000      -1.69500000
H        0.63060000       4.67020000      -3.94120000
H        2.05960000       3.66180000      -3.58650000
H       -0.59160000       2.64130000      -4.70980000
H        0.81820000       1.62730000      -4.28140000
