18
Properties=species:S:1:pos:R:3 gdb_68618=T pbc="F F F"
C       -0.02790000       1.51950000       0.04580000
C       -0.00560000       0.01280000      -0.00810000
C        0.36270000      -0.81700000      -1.28400000
C       -0.30840000      -1.94380000      -0.46690000
O        0.55790000      -2.12030000       0.64990000
C        0.82750000      -0.75130000       1.03430000
C       -1.32710000      -0.85970000       0.01680000
C       -2.04410000      -1.04750000       1.26310000
N       -2.60920000      -1.17720000       2.26370000
H        0.98270000       1.92730000      -0.06690000
H       -0.64840000       1.93670000      -0.75310000
H       -0.42660000       1.87230000       1.00300000
H       -0.20170000      -0.51170000      -2.16700000
H        1.42080000      -0.94830000      -1.51800000
H       -0.61490000      -2.90760000      -0.86710000
H        1.89940000      -0.53810000       0.95350000
H        0.49970000      -0.58260000       2.06540000
H       -2.01360000      -0.55540000      -0.77580000
