21
Properties=species:S:1:pos:R:3 gdb_62622=T pbc="F F F"
C       -0.02270000       1.57060000       0.02140000
C        0.07520000       0.05070000       0.02540000
O       -1.21950000      -0.51650000      -0.16580000
C        1.12610000      -0.65680000      -0.83200000
C        2.41240000      -0.77470000       0.00080000
C        2.14540000      -0.13570000       1.36120000
C        0.70750000      -0.71650000       1.23940000
C       -0.12740000      -1.02340000       2.45370000
C        1.28420000      -1.75800000       0.18180000
H        0.95160000       2.04890000       0.14630000
H       -0.43470000       1.91710000      -0.93490000
H       -0.69260000       1.91590000       0.81530000
H       -1.52430000      -0.26700000      -1.04420000
H        1.14810000      -0.74020000      -1.91280000
H        3.36670000      -0.94140000      -0.48340000
H        2.70400000      -0.65000000       2.14970000
H        2.25940000       0.94660000       1.49000000
H       -0.33910000      -0.10990000       3.02270000
H       -1.08260000      -1.46900000       2.16500000
H        0.39320000      -1.71610000       3.12360000
H        1.22970000      -2.83270000       0.09300000
