19
Properties=species:S:1:pos:R:3 gdb_16430=T pbc="F F F"
C       -0.17820000       1.61020000      -0.02120000
C       -0.02640000       0.09900000       0.01650000
C        1.19390000      -0.56640000      -0.62860000
C        2.16070000      -0.23890000       0.54730000
C        2.52410000      -1.71520000       0.62740000
N        1.04350000      -1.81810000       0.27550000
C        0.75440000      -0.56530000       1.16720000
C        0.37020000      -0.70000000       2.61080000
H        0.76300000       2.11860000       0.21420000
H       -0.49990000       1.94800000      -1.01220000
H       -0.93000000       1.94850000       0.70000000
H       -0.96730000      -0.41640000      -0.21230000
H        1.45380000      -0.68530000      -1.68280000
H        2.77910000       0.65310000       0.69500000
H        3.18130000      -2.12510000      -0.14700000
H        2.77840000      -2.14200000       1.60310000
H        1.11670000      -1.26940000       3.17430000
H        0.27610000       0.28630000       3.07820000
H       -0.59140000      -1.21520000       2.70330000
