22
Properties=species:S:1:pos:R:3 gdb_60212=T pbc="F F F"
C       -0.01670000       1.54380000       0.04290000
C       -0.00130000       0.02000000      -0.01020000
C        0.59260000      -0.59410000       1.26120000
O       -1.34980000      -0.38560000      -0.22660000
C       -1.53820000      -1.69800000      -0.66400000
C       -1.77830000      -2.87690000       0.36690000
C       -3.09190000      -3.16240000      -0.36440000
N       -3.91010000      -1.94310000      -0.17920000
C       -2.90590000      -1.99230000      -1.27140000
H        0.99720000       1.93760000       0.16190000
H       -0.44720000       1.95300000      -0.87460000
H       -0.62320000       1.88650000       0.88720000
H        0.60550000      -0.30290000      -0.87440000
H        0.63070000      -1.68530000       1.20250000
H        1.61390000      -0.23170000       1.41820000
H       -0.01100000      -0.31770000       2.13170000
H       -0.74540000      -1.98780000      -1.37030000
H       -1.02760000      -3.66680000       0.29440000
H       -1.90660000      -2.56570000       1.40520000
H       -3.54810000      -4.12210000      -0.57050000
H       -4.81440000      -2.11550000      -0.61900000
H       -3.20730000      -1.84260000      -2.30130000
