23
Properties=species:S:1:pos:R:3 gdb_114250=T pbc="F F F"
C        0.01130000       1.50590000       0.19970000
C       -0.11950000      -0.00610000      -0.01060000
C        0.64320000      -0.51110000      -1.22790000
C        2.20060000      -0.50210000      -1.20450000
C        2.18990000      -1.88010000      -1.90770000
C        2.59030000      -1.98490000      -3.39620000
O        3.58190000      -2.99010000      -3.10810000
C        3.26470000      -2.95960000      -1.70130000
C        0.70820000      -2.04170000      -1.49440000
H        1.05860000       1.79850000       0.33240000
H       -0.37950000       2.06000000      -0.66100000
H       -0.54020000       1.83500000       1.08580000
H        0.24250000      -0.53490000       0.88190000
H       -1.17980000      -0.27340000      -0.11360000
H        0.28510000       0.00750000      -2.12590000
H        2.72450000       0.31420000      -1.70980000
H        2.58440000      -0.58020000      -0.18020000
H        1.81010000      -2.36020000      -4.07270000
H        3.03670000      -1.08130000      -3.83340000
H        4.12700000      -2.65860000      -1.09050000
H        2.89550000      -3.92980000      -1.34090000
H        0.61430000      -2.61330000      -0.56370000
H        0.02290000      -2.46710000      -2.23350000
