20
Properties=species:S:1:pos:R:3 gdb_82479=T pbc="F F F"
C        0.01640000       1.50360000       0.01570000
C        0.02330000      -0.00400000       0.01320000
C        0.48990000      -0.74380000      -1.26220000
C       -0.70880000      -1.68640000      -1.07590000
C       -0.49460000      -2.76790000      -0.00810000
O        0.75750000      -3.41200000      -0.05480000
C       -0.77080000      -1.68280000       1.05950000
C        0.41920000      -0.74630000       1.31190000
N       -1.33390000      -0.75150000      -0.02580000
H        1.04240000       1.89120000       0.04510000
H       -0.47020000       1.89450000      -0.88380000
H       -0.52010000       1.89180000       0.88760000
H        0.37390000      -0.11980000      -2.15260000
H        1.48640000      -1.19100000      -1.26270000
H       -1.29630000      -1.95480000      -1.95580000
H       -1.31940000      -3.49310000      -0.03160000
H        0.77330000      -4.10410000       0.61390000
H       -1.41300000      -1.94810000       1.90260000
H        1.41170000      -1.20260000       1.35490000
H        0.26860000      -0.12260000       2.19720000
