21
Properties=species:S:1:pos:R:3 gdb_119837=T pbc="F F F"
C       -0.00530000       1.39130000      -0.03630000
O       -0.02210000      -0.01470000       0.00860000
C        0.59620000      -0.60550000      -1.10900000
C        0.54940000      -2.09460000      -1.00890000
C        0.02720000      -2.82370000      -0.01940000
C        0.21110000      -4.30460000      -0.25700000
C        0.56240000      -4.37090000      -1.76490000
O       -0.59190000      -4.61780000      -2.55760000
C        1.17040000      -2.97860000      -2.07170000
H        1.02230000       1.78810000      -0.05770000
H       -0.53970000       1.77930000      -0.91830000
H       -0.50440000       1.75310000       0.86580000
H        0.10330000      -0.27660000      -2.04440000
H        1.64750000      -0.26890000      -1.19480000
H       -0.43940000      -2.40750000       0.86420000
H        1.02390000      -4.70620000       0.36500000
H       -0.67700000      -4.90960000      -0.04480000
H        1.24790000      -5.18720000      -2.00430000
H       -1.23550000      -3.93300000      -2.34090000
H        0.93800000      -2.67850000      -3.10010000
H        2.26620000      -2.98650000      -1.98150000
