18
Properties=species:S:1:pos:R:3 gdb_16412=T pbc="F F F"
C       -0.01710000       1.50720000       0.04950000
C        0.00130000       0.01090000      -0.01150000
C       -0.00710000      -0.72400000      -1.12650000
C       -0.00070000      -2.23570000      -1.02180000
C       -0.02570000      -2.63130000       0.46130000
C       -1.10250000      -1.85420000       1.25250000
C        0.02280000      -0.79370000       1.28230000
O        1.00470000      -1.86740000       1.15470000
H        0.87100000       1.89320000       0.56670000
H       -0.04930000       1.95010000      -0.94980000
H       -0.88640000       1.87520000       0.61070000
H       -0.00700000      -0.26740000      -2.11300000
H       -0.86170000      -2.67170000      -1.54730000
H        0.89640000      -2.65160000      -1.49980000
H        0.07890000      -3.70780000       0.62080000
H       -2.04450000      -1.59860000       0.76370000
H       -1.27570000      -2.30160000       2.23280000
H        0.18380000      -0.19050000       2.17930000
