15
Properties=species:S:1:pos:R:3 gdb_87661=T pbc="F F F"
O       -0.30730000       1.40670000       0.00510000
C       -0.07790000       0.03890000      -0.09470000
C       -0.15140000      -0.82720000       1.16110000
C       -1.21980000      -0.88960000       0.12440000
O       -2.53330000      -0.30470000       0.35760000
C       -3.12270000      -1.19670000      -0.51900000
O       -4.25170000      -1.22500000      -0.88020000
C       -1.80690000      -1.97990000      -0.75310000
O       -1.29410000      -2.01670000      -2.05360000
H       -1.26150000       1.55040000      -0.02560000
H        0.65200000      -0.22590000      -0.85490000
H        0.52210000      -1.67280000       1.25770000
H       -0.39740000      -0.31380000       2.08450000
H       -1.83280000      -2.96840000      -0.27390000
H       -1.79910000      -2.66020000      -2.56270000
