18
Properties=species:S:1:pos:R:3 gdb_32132=T pbc="F F F"
C       -0.15610000       1.39520000       0.09620000
O       -0.04880000      -0.02560000       0.06610000
C        0.62930000      -0.61230000       1.07380000
C        0.72870000      -2.01270000       1.03370000
C        1.42000000      -2.62600000       2.05890000
C        1.98270000      -1.84820000       3.07590000
C        1.82810000      -0.46850000       3.02420000
C        2.40280000       0.43970000       4.07900000
N        1.15520000       0.13820000       2.02760000
H        0.82990000       1.86790000       0.06590000
H       -0.73140000       1.66270000      -0.79160000
H       -0.67220000       1.73460000       0.99910000
H        0.27250000      -2.56300000       0.22070000
H        1.52570000      -3.70610000       2.07470000
H        2.52970000      -2.30740000       3.89090000
H        2.93270000      -0.12290000       4.85120000
H        3.09770000       1.15620000       3.62870000
H        1.60800000       1.02380000       4.55440000
