19
Properties=species:S:1:pos:R:3 gdb_8889=T pbc="F F F"
C       -0.03270000       1.62120000      -0.09540000
C        0.00930000       0.09120000      -0.10140000
N        0.72410000      -0.45980000      -1.25520000
C        2.15820000      -0.63790000      -1.11810000
C        0.02100000      -0.74160000      -2.38060000
O       -1.18810000      -0.54700000      -2.46920000
C        0.74480000      -1.33740000      -3.60020000
O       -0.18390000      -1.57500000      -4.61400000
H        0.97250000       2.05520000      -0.09530000
H       -0.56910000       1.98670000      -0.97470000
H       -0.55230000       1.98090000       0.79810000
H        0.50200000      -0.28530000       0.80210000
H       -1.00610000      -0.30770000      -0.12700000
H        2.60500000      -0.96900000      -2.05380000
H        2.64010000       0.30480000      -0.83290000
H        2.38740000      -1.38280000      -0.34560000
H        1.52650000      -0.63830000      -3.93930000
H        1.25380000      -2.26900000      -3.30650000
H       -1.02820000      -1.27020000      -4.23530000
