13
Properties=species:S:1:pos:R:3 gdb_43661=T pbc="F F F"
O       -0.02350000       0.05270000      -0.37290000
C       -0.07150000       1.22070000      -0.11730000
C       -1.28120000       2.08680000       0.17050000
C       -0.71970000       3.52560000       0.07970000
O        0.72980000       3.40850000       0.20370000
C        1.16490000       2.13960000       0.00720000
O        2.31450000       1.82520000      -0.02550000
C       -1.05440000       4.19410000      -1.17050000
C       -1.34740000       4.73300000      -2.20270000
H       -2.09980000       1.89520000      -0.52260000
H       -1.63020000       1.86940000       1.18590000
H       -1.03600000       4.14010000       0.92610000
H       -1.59980000       5.21650000      -3.11480000
