17
Properties=species:S:1:pos:R:3 gdb_23100=T pbc="F F F"
O       -0.14020000       1.32820000       0.23180000
N        0.00780000      -0.06330000       0.22400000
C       -1.09370000      -0.64020000      -0.03450000
C       -2.45720000      -0.03290000      -0.27590000
C       -3.37370000      -1.24290000      -0.55280000
C       -2.69110000      -2.41600000       0.17650000
C       -1.17650000      -2.16680000      -0.05990000
C       -0.74740000      -2.69700000      -1.35880000
N       -0.42900000      -3.11860000      -2.38700000
H        0.75280000       1.62990000       0.43200000
H       -2.76240000       0.51810000       0.62230000
H       -2.42980000       0.69870000      -1.08810000
H       -4.40090000      -1.08380000      -0.21790000
H       -3.40670000      -1.45000000      -1.62750000
H       -2.88040000      -2.35850000       1.25370000
H       -3.01430000      -3.39780000      -0.17350000
H       -0.54340000      -2.60900000       0.71330000
