19
Properties=species:S:1:pos:R:3 gdb_59245=T pbc="F F F"
C        0.07370000       1.54760000      -0.00270000
C        0.04000000       0.02270000       0.00020000
O        0.80900000      -0.41180000       1.13120000
C       -1.39370000      -0.52320000       0.05430000
C       -1.58220000      -2.04870000       0.04400000
O       -0.86290000      -2.57630000       1.17650000
C       -2.19170000      -2.05650000       1.38610000
C       -2.12610000      -0.51700000       1.46760000
O       -1.52660000       0.10790000       2.55770000
H        1.10980000       1.89570000       0.02110000
H       -0.40600000       1.94390000      -0.90270000
H       -0.44590000       1.94070000       0.87550000
H        0.51780000      -0.34800000      -0.92180000
H        0.62770000      -1.35800000       1.24180000
H       -2.00260000      -0.03540000      -0.71230000
H       -1.73070000      -2.72050000      -0.79300000
H       -2.90060000      -2.74290000       1.83430000
H       -3.13850000      -0.11160000       1.36800000
H       -0.56940000      -0.02900000       2.46220000
