19
Properties=species:S:1:pos:R:3 gdb_61531=T pbc="F F F"
C       -0.12390000       1.49880000       0.01950000
C        0.06130000      -0.00460000       0.06500000
C       -1.13980000      -0.74820000       0.63940000
C       -0.91480000      -2.25340000       0.91100000
O        0.06920000      -2.49060000       1.88650000
C       -2.17940000      -2.85670000       1.37060000
N       -3.18980000      -3.31080000       1.69710000
C        0.96200000      -0.62670000      -0.94140000
N        1.38720000      -0.52530000       0.46970000
H        0.75220000       1.99400000      -0.41150000
H       -0.99390000       1.76740000      -0.58890000
H       -0.28570000       1.90180000       1.02540000
H       -1.42190000      -0.28270000       1.59090000
H       -1.99020000      -0.62840000      -0.04210000
H       -0.66780000      -2.75700000      -0.04010000
H        0.83220000      -1.95000000       1.60050000
H        0.79930000      -1.63880000      -1.29850000
H        1.43810000       0.02820000      -1.66570000
H        2.05640000       0.22810000       0.59890000
