20
Properties=species:S:1:pos:R:3 gdb_36791=T pbc="F F F"
C       -0.06740000      -1.11010000      -0.10130000
C       -0.00580000       0.08880000      -0.15740000
C        0.10470000       1.53980000      -0.21670000
C        1.52430000       2.02580000       0.09510000
O        1.51990000       3.43230000       0.01110000
C        2.77740000       4.01400000       0.29160000
C        2.64460000       5.51080000       0.24390000
C        3.79390000       6.32940000      -0.21600000
N        2.58580000       6.21090000      -1.04650000
H       -0.13720000      -2.16850000      -0.05510000
H       -0.17940000       1.90390000      -1.21100000
H       -0.58790000       2.00500000       0.49440000
H        1.82560000       1.69170000       1.10090000
H        2.23820000       1.58920000      -0.62200000
H        3.13140000       3.69520000       1.28720000
H        3.53020000       3.67800000      -0.44400000
H        1.97210000       5.92440000       0.99220000
H        3.96450000       7.31350000       0.21050000
H        4.69830000       5.81010000      -0.52490000
H        2.74240000       5.54920000      -1.80370000
