18
Properties=species:S:1:pos:R:3 gdb_82060=T pbc="F F F"
O        0.31490000       1.43780000       0.14010000
C        0.13040000       0.05430000       0.05360000
C        0.31400000      -0.76220000       1.34050000
N       -0.73360000      -0.22370000       2.24470000
C       -1.07880000      -1.28050000       1.25320000
C       -1.34250000      -0.51510000      -0.04170000
C       -2.56440000       0.37310000      -0.30020000
C       -2.77500000      -0.52760000      -1.53340000
O       -1.60430000      -1.31540000      -1.20690000
H       -0.08030000       1.69740000       0.98370000
H        0.71140000      -0.32250000      -0.79150000
H        1.21220000      -1.21880000       1.73750000
H       -0.62510000      -0.67410000       3.15190000
H       -1.48990000      -2.23420000       1.55930000
H       -3.34190000       0.33230000       0.46390000
H       -2.31220000       1.41330000      -0.51330000
H       -3.68470000      -1.13910000      -1.53260000
H       -2.67380000      -0.03740000      -2.50810000
