15
Properties=species:S:1:pos:R:3 gdb_28738=T pbc="F F F"
N       -0.32270000       0.69990000       1.24970000
C       -0.22650000      -0.18480000       0.18620000
C       -0.52460000      -0.17150000      -1.13560000
N       -0.29250000      -1.44620000      -1.66670000
C        0.12700000      -2.12960000      -0.65440000
N        0.47590000      -3.46320000      -0.69020000
C        1.09320000      -4.24830000       0.26120000
N        1.44100000      -3.83870000       1.41350000
O        0.19300000      -1.45060000       0.51480000
H        0.44640000       0.60480000       1.90300000
H       -0.40420000       1.65920000       0.94080000
H       -0.88040000       0.64300000      -1.74410000
H        0.31440000      -3.87210000      -1.59640000
H        1.22990000      -5.26580000      -0.12400000
H        1.86600000      -4.60270000       1.93420000
