14
Properties=species:S:1:pos:R:3 gdb_14816=T pbc="F F F"
O       -0.05580000      -0.08130000      -0.27070000
C       -0.00210000       1.07340000       0.06090000
C        1.26790000       1.89270000       0.02900000
C        1.10260000       3.20690000      -0.79640000
N        0.83700000       3.93470000       0.46260000
C        1.45760000       2.85490000       1.25180000
C        0.79540000       2.53810000       2.52020000
N        0.28730000       2.28330000       3.52630000
H       -0.90490000       1.63180000       0.39050000
H        2.11330000       1.25100000      -0.21310000
H        2.03610000       3.47930000      -1.30580000
H        0.28000000       3.24190000      -1.51760000
H        1.25470000       4.85280000       0.56390000
H        2.52960000       2.98950000       1.45440000
