17
Properties=species:S:1:pos:R:3 gdb_45130=T pbc="F F F"
N       -0.02300000       1.40060000      -0.41670000
C        0.04710000       0.16720000      -0.09860000
O       -1.15490000      -0.49200000      -0.14850000
C       -1.32820000      -1.81080000      -0.55860000
C       -0.51300000      -2.49410000      -1.62590000
C       -0.49170000      -2.99500000      -0.17850000
N        0.68800000      -2.90090000       0.63070000
C        1.48830000      -1.79610000       0.71110000
C        1.24580000      -0.50500000       0.39660000
H        0.88270000       1.84490000      -0.27340000
H       -2.39650000      -1.99880000      -0.56970000
H       -1.01130000      -3.07290000      -2.39570000
H        0.38260000      -1.97580000      -1.95110000
H       -1.04540000      -3.90100000       0.04640000
H        1.18630000      -3.77350000       0.71420000
H        2.47340000      -2.02990000       1.10520000
H        2.08220000       0.16780000       0.54890000
