16
Properties=species:S:1:pos:R:3 gdb_71181=T pbc="F F F"
C       -0.07260000       1.51730000       0.03650000
C        0.09270000       0.03360000       0.08790000
O       -1.15120000      -0.71590000       0.14940000
C       -0.41430000      -1.75050000       0.79380000
C        0.93480000      -1.89060000       0.07280000
C        0.72580000      -0.88970000       1.20570000
C        0.92980000      -0.77500000      -0.97430000
C        0.33610000      -0.99620000      -2.28750000
N       -0.12440000      -1.16320000      -3.33440000
H        0.90140000       2.01440000       0.01260000
H       -0.62910000       1.79730000      -0.86400000
H       -0.62790000       1.87050000       0.90950000
H       -0.94410000      -2.55800000       1.27950000
H        1.52290000      -2.79820000       0.07100000
H        1.25120000      -0.70540000       2.13170000
H        1.92750000      -0.34120000      -1.08090000
