17
Properties=species:S:1:pos:R:3 gdb_66295=T pbc="F F F"
C       -0.07610000       1.71540000       0.28500000
C        0.04330000       0.19870000       0.06820000
C        0.77770000      -0.26540000      -1.19250000
O        1.41070000      -1.49960000      -0.84550000
C        1.85290000      -1.40930000       0.48970000
C        0.89490000      -0.44420000       1.18390000
O        0.80810000      -0.21230000       2.35980000
C       -1.36220000      -0.41000000       0.16590000
O       -1.90300000      -1.03180000      -0.70700000
H        0.91050000       2.18550000       0.24600000
H       -0.70730000       2.17540000      -0.48110000
H       -0.50720000       1.92260000       1.26820000
H        0.09740000      -0.47030000      -2.02030000
H        1.52380000       0.48210000      -1.50340000
H        1.84000000      -2.39990000       0.95370000
H        2.87730000      -1.00510000       0.57040000
H       -1.86260000      -0.20320000       1.13650000
