19
Properties=species:S:1:pos:R:3 gdb_29702=T pbc="F F F"
C        0.02000000       1.44700000       0.02120000
N        0.02950000       0.00140000       0.01840000
C        0.07820000      -0.78890000      -1.10510000
N        0.14940000      -0.19120000      -2.38500000
C        0.10200000      -2.11090000      -0.70370000
C        0.05890000      -2.10530000       0.71610000
O        0.06620000      -3.18250000       1.56450000
C        0.00140000      -0.80190000       1.15380000
C       -0.07700000      -0.26510000       2.54180000
H        0.26230000       1.78820000      -0.98590000
H       -0.95960000       1.84890000       0.30840000
H        0.76730000       1.83530000       0.72020000
H       -0.76740000      -0.05770000      -2.80320000
H        0.68930000      -0.76900000      -3.01800000
H        0.13320000      -2.97160000      -1.35590000
H        0.04290000      -3.98310000       1.03400000
H        0.79500000       0.34370000       2.81690000
H       -0.96790000       0.35540000       2.70680000
H       -0.12430000      -1.10390000       3.24000000
