17
Properties=species:S:1:pos:R:3 gdb_97691=T pbc="F F F"
O        0.16470000       1.37170000       0.36960000
C        0.02330000       0.11840000      -0.28080000
C       -1.34030000      -0.40830000      -0.23350000
C       -2.46380000      -0.83030000      -0.12660000
C       -3.82830000      -1.28190000      -0.01860000
C       -4.83170000      -0.27660000       0.52370000
O       -4.55560000       0.05530000       1.86760000
C       -4.29990000      -2.41870000      -0.83430000
O       -4.01490000      -2.60480000       0.54770000
H       -0.23040000       1.29010000       1.24420000
H        0.33000000       0.28370000      -1.31980000
H        0.71100000      -0.63520000       0.13610000
H       -4.77750000       0.65530000      -0.04690000
H       -5.84120000      -0.69810000       0.40570000
H       -4.56480000      -0.77000000       2.36620000
H       -5.35200000      -2.47280000      -1.11280000
H       -3.60550000      -2.89360000      -1.52440000
