19
Properties=species:S:1:pos:R:3 gdb_86439=T pbc="F F F"
O        0.01850000       1.41300000       0.12850000
C        0.03850000      -0.00690000      -0.00470000
C       -1.40950000      -0.46880000       0.16710000
C       -1.56650000      -1.94180000       0.53660000
O       -2.96790000      -2.12720000       0.75350000
C       -1.06290000      -2.94120000      -0.47640000
C       -0.20930000      -2.78320000      -1.49720000
C        0.52740000      -1.59840000      -1.93610000
C        0.65110000      -0.41510000      -1.32350000
H        0.92280000       1.73250000       0.04770000
H        0.64360000      -0.44440000       0.81110000
H       -1.85490000       0.12120000       0.97220000
H       -1.97740000      -0.26170000      -0.74460000
H       -1.02840000      -2.12150000       1.48540000
H       -3.11590000      -3.05020000       0.98280000
H       -1.47290000      -3.94130000      -0.33120000
H       -0.01580000      -3.66780000      -2.10060000
H        1.05640000      -1.72530000      -2.87770000
H        1.25300000       0.35350000      -1.80470000
