11
Properties=species:S:1:pos:R:3 gdb_21868=T pbc="F F F"
O       -0.02710000       1.31590000       0.00760000
C       -0.06890000      -0.01140000       0.00140000
N       -1.18290000      -0.63040000       0.00380000
C       -1.11450000      -2.02360000      -0.00430000
N       -2.11240000      -2.81860000      -0.00320000
C        0.23790000      -2.60070000      -0.01480000
N        1.33440000      -1.94630000      -0.01720000
O        1.18050000      -0.52880000      -0.00850000
H        0.89830000       1.59770000       0.00400000
H       -2.97750000      -2.27260000       0.00450000
H        0.34770000      -3.68090000      -0.02120000
