23
Properties=species:S:1:pos:R:3 gdb_121020=T pbc="F F F"
C       -0.47500000       1.52090000      -0.03990000
C       -0.03310000       0.05530000      -0.07390000
C        0.55190000      -0.42370000       1.26020000
C        0.99030000      -1.88930000       1.25050000
C        2.15140000      -2.23810000       0.27990000
C        2.90730000      -3.31780000       1.01520000
C        2.49980000      -3.45560000       2.27720000
C        1.44910000      -2.43340000       2.64080000
O        1.97430000      -1.44480000       3.53200000
H        0.36760000       2.18270000       0.19000000
H       -0.89310000       1.83630000      -1.00120000
H       -1.24020000       1.68600000       0.72680000
H       -0.88830000      -0.57950000      -0.34280000
H        0.70720000      -0.08220000      -0.87270000
H        1.40450000       0.20990000       1.53620000
H       -0.19080000      -0.27700000       2.05500000
H        0.13120000      -2.50580000       0.95540000
H        1.78950000      -2.57390000      -0.69830000
H        2.80070000      -1.37280000       0.07890000
H        3.69890000      -3.89490000       0.54800000
H        2.91060000      -4.14360000       3.00760000
H        0.60170000      -2.85600000       3.19060000
H        2.84620000      -1.19850000       3.20380000
