17
Properties=species:S:1:pos:R:3 gdb_65751=T pbc="F F F"
C        0.34430000       1.61330000       0.78890000
C        0.11890000       0.12940000       0.51160000
C        0.23150000      -0.30310000      -0.98710000
N        1.45600000      -1.02660000      -0.61030000
C        1.36350000      -0.78180000       0.72980000
O        1.97410000      -1.15320000       1.69800000
N       -1.02480000      -0.41070000       1.22380000
C       -2.30860000      -0.13280000       0.87900000
O       -2.63430000       0.53080000      -0.08460000
H        1.21740000       1.98170000       0.24210000
H       -0.53380000       2.18510000       0.47970000
H        0.51680000       1.77320000       1.85700000
H       -0.58230000      -0.94430000      -1.32970000
H        0.39010000       0.51460000      -1.69400000
H        2.05680000      -1.65200000      -1.12710000
H       -0.83870000      -0.92680000       2.07120000
H       -3.03720000      -0.59650000       1.57270000
