20
Properties=species:S:1:pos:R:3 gdb_12923=T pbc="F F F"
C        0.10670000       1.37180000      -0.39080000
C       -0.01320000       0.00240000       0.28780000
C       -1.40360000      -0.59010000       0.18610000
C       -2.00730000      -1.17920000      -1.08490000
C       -0.96900000      -2.03090000      -1.80130000
O       -0.65680000      -2.75460000      -0.58220000
C       -1.70530000      -2.05860000       0.11860000
C       -2.53240000      -2.86170000       1.06850000
H        1.12060000       1.77360000      -0.29800000
H       -0.13290000       1.30450000      -1.45730000
H       -0.58160000       2.09860000       0.05500000
H        0.70910000      -0.69920000      -0.14110000
H        0.25240000       0.09370000       1.34890000
H       -2.16270000      -0.04930000       0.75120000
H       -2.95210000      -0.85290000      -1.49970000
H       -1.40090000      -2.70780000      -2.54750000
H       -0.09000000      -1.53190000      -2.22690000
H       -1.91950000      -3.21520000       1.90580000
H       -3.34430000      -2.25420000       1.47850000
H       -2.96390000      -3.73710000       0.57280000
