16
Properties=species:S:1:pos:R:3 gdb_74307=T pbc="F F F"
C       -0.11050000       1.49140000       0.02070000
C       -0.09990000       0.00160000       0.01450000
C       -1.11270000      -0.87450000       0.02360000
C       -0.55520000      -2.26740000       0.00140000
C       -0.98970000      -3.17300000      -1.14730000
O       -1.92830000      -2.95690000      -1.86520000
C        0.97620000      -2.04880000      -0.03190000
O        1.84540000      -2.88730000      -0.08560000
N        1.13700000      -0.68070000      -0.00560000
H        0.39120000       1.89550000      -0.86690000
H       -1.13660000       1.86310000       0.03280000
H        0.41110000       1.88950000       0.89940000
H       -2.16240000      -0.62820000       0.01440000
H       -0.76860000      -2.84150000       0.91740000
H       -0.35280000      -4.07630000      -1.25540000
H        2.04340000      -0.24380000      -0.04850000
