21
Properties=species:S:1:pos:R:3 gdb_97859=T pbc="F F F"
C       -0.65640000       1.59760000      -0.22180000
C        0.06950000       0.28740000       0.13470000
C        0.84120000      -0.26010000      -0.97680000
C        1.46920000      -0.68830000      -1.91220000
C        2.22740000      -1.23260000      -3.02710000
C        3.77020000      -1.25860000      -2.82750000
C        4.21130000      -2.53880000      -3.58280000
O        3.03530000      -3.12450000      -4.13750000
C        1.94350000      -2.71950000      -3.33750000
H        0.05850000       2.36740000      -0.52480000
H       -1.35420000       1.44220000      -1.04920000
H       -1.21950000       1.96930000       0.63950000
H        0.73440000       0.45960000       0.99110000
H       -0.66410000      -0.45690000       0.47070000
H        2.00200000      -0.66190000      -3.93610000
H        4.24080000      -0.35450000      -3.21860000
H        4.00950000      -1.32490000      -1.76380000
H        4.89880000      -2.33860000      -4.40960000
H        4.70120000      -3.24510000      -2.89670000
H        1.88590000      -3.29520000      -2.39930000
H        1.02410000      -2.87850000      -3.90560000
