19
Properties=species:S:1:pos:R:3 gdb_90364=T pbc="F F F"
C       -0.94930000       1.19130000       0.00110000
C       -0.07260000      -0.05020000      -0.06430000
C        1.17260000      -0.06120000      -1.00110000
C        2.04030000      -0.70740000       0.13660000
C        2.84860000       0.35030000       0.87890000
O        3.97480000       0.74820000       0.80260000
C        1.66310000       0.70070000       1.80560000
C        0.84560000      -0.44700000       1.12520000
O        0.42840000      -1.48230000       1.96810000
H       -0.36120000       2.09640000       0.18720000
H       -1.48570000       1.34020000      -0.94230000
H       -1.70060000       1.11010000       0.79530000
H       -0.68890000      -0.92920000      -0.28240000
H        1.07950000      -0.67890000      -1.89530000
H        1.51820000       0.93050000      -1.30670000
H        2.47590000      -1.68610000      -0.06060000
H        1.89240000       0.46330000       2.84930000
H        1.28950000       1.72640000       1.74830000
H       -0.24040000      -1.13650000       2.56980000
