17
Properties=species:S:1:pos:R:3 gdb_30493=T pbc="F F F"
C       -0.05580000       1.45020000      -0.01300000
N        0.02270000       0.00220000       0.01500000
C       -1.05030000      -0.67460000       0.02910000
O       -2.29510000      -0.00100000       0.01640000
C       -3.44800000      -0.68910000       0.03340000
C       -3.52360000      -2.02780000       0.06100000
C       -2.29190000      -2.78890000       0.07060000
N       -2.38070000      -4.16500000       0.15830000
C       -1.11080000      -2.11190000       0.04910000
H        0.95710000       1.86160000      -0.02200000
H       -0.58340000       1.82530000      -0.90200000
H       -0.58150000       1.85930000       0.86190000
H       -4.30880000      -0.03030000       0.02320000
H       -4.48860000      -2.51730000       0.08800000
H       -3.21440000      -4.58330000      -0.22500000
H       -1.54240000      -4.67840000      -0.06870000
H       -0.15550000      -2.62170000       0.05090000
