17
Properties=species:S:1:pos:R:3 gdb_81537=T pbc="F F F"
O       -0.07020000       1.41900000      -0.32310000
C        0.01430000       0.05300000      -0.01750000
C       -0.11700000      -0.40330000       1.48410000
C       -1.59210000       0.08460000       1.39970000
C       -1.35140000      -0.68330000       0.06470000
C       -0.57590000      -1.78610000       0.88610000
O        0.38420000      -2.52950000       0.20530000
C       -1.37750000      -2.71270000       1.76140000
O       -1.13060000      -3.89930000       1.79130000
H        0.82350000       1.76880000      -0.37980000
H        0.79190000      -0.44650000      -0.59580000
H        0.59600000      -0.26190000       2.29780000
H       -2.31740000      -0.31010000       2.10960000
H       -1.70670000       1.15960000       1.28660000
H       -2.05590000      -0.86020000      -0.74870000
H        0.25100000      -3.44630000       0.49820000
H       -2.19110000      -2.29280000       2.37360000
