18
Properties=species:S:1:pos:R:3 gdb_13263=T pbc="F F F"
C        0.01040000       1.47210000       0.07590000
C        0.03230000       0.01640000       0.07620000
C        0.05190000      -1.18710000       0.08460000
C        0.04640000      -2.64510000       0.08150000
C       -1.32840000      -3.24240000      -0.22450000
C       -1.48040000      -4.77400000      -0.09230000
C       -2.58620000      -4.42700000       0.92380000
O       -2.28540000      -3.01910000       0.83530000
H        0.41790000       1.87960000      -0.85610000
H       -1.01120000       1.85300000       0.18490000
H        0.60390000       1.87940000       0.90200000
H        0.75370000      -3.02460000      -0.67000000
H        0.38200000      -3.03050000       1.05300000
H       -1.69990000      -2.83610000      -1.17480000
H       -1.79210000      -5.30930000      -0.99010000
H       -0.60780000      -5.27050000       0.33860000
H       -3.60760000      -4.64790000       0.58770000
H       -2.45910000      -4.81130000       1.94240000
