13
Properties=species:S:1:pos:R:3 gdb_2003=T pbc="F F F"
C       -0.01230000      -1.11500000      -0.05260000
C       -0.00740000       0.08620000      -0.01050000
C        0.01390000       1.51490000       0.07090000
C       -0.67250000       2.45590000       1.10570000
C       -0.08020000       3.30750000      -0.03930000
C        1.22880000       2.48920000       0.02380000
O       -0.61720000       2.32700000      -1.01320000
H       -0.01830000      -2.17630000      -0.09630000
H       -1.76030000       2.39100000       1.12430000
H       -0.22320000       2.52980000       2.09880000
H       -0.22600000       4.36250000      -0.26310000
H        1.85110000       2.56610000       0.91840000
H        1.80180000       2.45340000      -0.90270000
