16
Properties=species:S:1:pos:R:3 gdb_133081=T pbc="F F F"
C        0.07780000       1.38600000       0.00630000
O       -0.00890000      -0.02660000       0.00370000
C       -1.24320000      -0.59390000       0.01160000
C       -2.44570000       0.11930000       0.02210000
C       -3.65340000      -0.57930000       0.02950000
C       -3.68970000      -1.96780000       0.02670000
C       -2.47650000      -2.64780000       0.01620000
F       -2.48380000      -3.98590000       0.01320000
C       -1.25930000      -1.99350000       0.00860000
H        1.14270000       1.62350000      -0.00110000
H       -0.39530000       1.82220000      -0.88270000
H       -0.38210000       1.81810000       0.90410000
H       -2.45320000       1.20070000       0.02460000
H       -4.58410000      -0.02190000       0.03770000
H       -4.61920000      -2.52270000       0.03240000
H       -0.32960000      -2.54800000       0.00040000
