19
Properties=species:S:1:pos:R:3 gdb_39964=T pbc="F F F"
C        0.20000000       1.56700000      -0.01640000
O        1.27480000       0.62990000      -0.19370000
C       -0.03420000       0.12400000      -0.02140000
C       -0.47150000      -0.79180000       1.12540000
C       -1.47830000      -1.45050000       0.14180000
C       -1.85140000      -2.94300000       0.15540000
C       -3.29070000      -2.44030000       0.37340000
O       -2.85570000      -1.06420000       0.34750000
C       -0.77980000      -0.73430000      -1.04730000
H        0.20760000       2.11190000       0.92690000
H       -0.05100000       2.16010000      -0.89500000
H        0.32770000      -1.47530000       1.42980000
H       -0.91750000      -0.32870000       2.00840000
H       -1.67310000      -3.47120000      -0.78340000
H       -1.42240000      -3.51810000       0.97840000
H       -4.00150000      -2.65890000      -0.43230000
H       -3.75020000      -2.70520000       1.33300000
H       -1.45020000      -0.22930000      -1.74620000
H       -0.10180000      -1.39520000      -1.59680000
