21
Properties=species:S:1:pos:R:3 gdb_86744=T pbc="F F F"
C        0.52440000       1.63520000      -0.08130000
C       -0.09670000       0.24450000       0.14090000
C        0.14750000      -0.74190000      -1.03470000
C        1.29340000      -1.69410000      -0.57910000
C        1.29090000      -1.51070000       0.92380000
C        0.54130000      -0.48000000       1.30500000
C        1.09010000      -3.10600000      -1.09210000
C        1.39170000      -4.32670000      -0.33400000
O        0.04420000      -3.88000000      -0.50030000
H        1.59740000       1.55690000      -0.28780000
H        0.05100000       2.14460000      -0.92740000
H        0.40200000       2.26990000       0.80280000
H       -1.17270000       0.38260000       0.30750000
H       -0.75300000      -1.34100000      -1.20030000
H        0.37790000      -0.22610000      -1.97130000
H        2.26010000      -1.35840000      -0.98750000
H        1.88210000      -2.12840000       1.59050000
H        0.42890000      -0.13730000       2.32880000
H        1.12300000      -3.18540000      -2.18160000
H        1.65170000      -5.24110000      -0.86660000
H        1.78160000      -4.25990000       0.67980000
