19
Properties=species:S:1:pos:R:3 gdb_76348=T pbc="F F F"
C        0.88390000       1.49800000      -0.02930000
C        0.14650000       0.16120000      -0.01450000
C        0.73900000      -0.93710000      -0.96540000
O        1.53330000      -0.56590000      -2.05140000
C        1.39840000      -1.64700000       0.26040000
C        2.85560000      -1.38070000       0.49840000
O        3.55030000      -0.62060000      -0.14020000
C        0.46600000      -0.76290000       1.18990000
O        1.05060000      -0.10720000       2.28940000
H        1.95810000       1.38450000       0.13020000
H        0.73590000       1.98600000      -0.99670000
H        0.49970000       2.15490000       0.75520000
H       -0.92390000       0.33790000      -0.15610000
H       -0.06320000      -1.56380000      -1.36740000
H        2.38360000      -0.27290000      -1.69230000
H        1.23700000      -2.72690000       0.35410000
H        3.29740000      -1.94580000       1.34760000
H       -0.40900000      -1.34700000       1.49920000
H        1.04490000      -0.70010000       3.04680000
