21
Properties=species:S:1:pos:R:3 gdb_59026=T pbc="F F F"
C        0.02190000       1.55820000      -0.03240000
C       -0.01140000       0.01970000       0.04540000
C        0.73270000      -0.48290000       1.29650000
C       -1.42090000      -0.50530000       0.00360000
C       -1.96570000      -1.31160000      -0.91580000
C       -3.41750000      -1.64200000      -0.63470000
C       -3.67010000      -0.94450000       0.69660000
O       -2.86300000      -1.42120000       1.77500000
C       -2.44070000      -0.22740000       1.07200000
H        1.05530000       1.91980000      -0.04730000
H       -0.48080000       1.92060000      -0.93410000
H       -0.47160000       2.01220000       0.83420000
H        0.50800000      -0.37000000      -0.83950000
H        0.74580000      -1.57570000       1.33520000
H        1.76750000      -0.12450000       1.30110000
H        0.25090000      -0.12370000       2.21260000
H       -1.42950000      -1.73210000      -1.76050000
H       -4.08710000      -1.25710000      -1.41520000
H       -3.59620000      -2.72210000      -0.56650000
H       -4.66640000      -0.60950000       0.97300000
H       -2.42780000       0.67500000       1.67610000
