14
Properties=species:S:1:pos:R:3 gdb_127999=T pbc="F F F"
C       -0.15060000       1.41030000       0.07570000
N       -0.17800000      -0.04390000       0.09910000
C        0.63020000      -0.64810000       0.85760000
O        1.53130000       0.01810000       1.65860000
N        2.43050000      -0.65810000       2.50260000
C        2.35180000      -1.94030000       2.47340000
N        1.50870000      -2.74060000       1.72980000
C        0.68770000      -2.11480000       0.95890000
O       -0.16800000      -2.78010000       0.19930000
H        0.83150000       1.79020000      -0.23400000
H       -0.90580000       1.76880000      -0.62590000
H       -0.35690000       1.83350000       1.06730000
H        3.05150000      -2.44780000       3.12950000
H       -0.01510000      -3.72300000       0.37040000
