15
Properties=species:S:1:pos:R:3 gdb_124120=T pbc="F F F"
C       -0.04170000       1.46360000      -0.00210000
C        0.00060000       0.01030000      -0.03680000
C        0.01150000      -1.19650000      -0.07230000
C        0.06380000      -2.60540000      -0.10620000
C        1.20070000      -3.39970000      -0.01760000
N        2.54130000      -3.06880000       0.04660000
N        0.72440000      -4.66010000      -0.09560000
N       -0.63810000      -4.66960000      -0.22150000
N       -1.02460000      -3.43910000      -0.23330000
H        0.60850000       1.90410000      -0.76650000
H       -1.05950000       1.82390000      -0.18760000
H        0.27460000       1.85530000       0.97160000
H        2.66700000      -2.07590000       0.20000000
H        3.08210000      -3.60340000       0.71440000
H        1.23070000      -5.53040000      -0.10790000
