17
Properties=species:S:1:pos:R:3 gdb_71313=T pbc="F F F"
C        0.05110000       1.54080000      -0.13980000
C        0.04430000       0.03560000      -0.09330000
C        0.53040000      -0.97700000      -1.13190000
N        0.04110000      -1.92830000      -0.04520000
C        0.55380000      -0.93750000       1.02620000
C       -0.79810000      -1.01710000       1.76530000
C       -1.20550000       0.07460000       2.63080000
N       -1.53120000       0.94210000       3.32270000
C       -1.12100000      -0.95360000       0.25800000
H        1.07370000       1.91630000      -0.25470000
H       -0.53450000       1.90090000      -0.99260000
H       -0.37080000       1.97490000       0.77060000
H       -0.02870000      -1.06440000      -2.06950000
H        1.60700000      -1.04870000      -1.31930000
H        1.55800000      -1.02970000       1.44190000
H       -1.00050000      -1.98760000       2.22700000
H       -2.08960000      -1.06480000      -0.23110000
