15
Properties=species:S:1:pos:R:3 gdb_16214=T pbc="F F F"
O        0.10160000       0.05730000      -0.24570000
C        0.03800000       1.24200000      -0.02610000
C       -1.20700000       2.09980000       0.18050000
O       -0.73590000       3.37370000       0.58470000
C        0.57400000       3.57390000       0.04120000
C        1.19640000       2.19280000       0.03620000
C        2.42620000       1.75950000       0.76360000
N        2.42240000       1.87310000      -0.69290000
H       -1.77060000       2.14450000      -0.76720000
H       -1.86680000       1.69210000       0.95140000
H        0.52250000       3.97680000      -0.98230000
H        1.08910000       4.29700000       0.67680000
H        3.00870000       2.51240000       1.28770000
H        2.41870000       0.76860000       1.21010000
H        2.31130000       0.94290000      -1.10000000
