20
Properties=species:S:1:pos:R:3 gdb_83563=T pbc="F F F"
C       -0.25720000       1.45220000      -0.07010000
C        0.09780000      -0.02360000       0.00630000
C        1.33340000      -0.63850000      -0.73510000
C        2.52430000       0.18890000      -0.20390000
C        2.15020000       0.17980000       1.31930000
C        0.85170000      -0.65150000       1.22530000
N        1.29710000      -1.72290000       0.28720000
C        0.78650000      -2.97140000       0.12410000
O        0.73190000      -3.57560000      -0.92770000
H        0.59160000       2.10920000       0.13440000
H       -0.63660000       1.70140000      -1.06680000
H       -1.04580000       1.69470000       0.65040000
H       -0.77850000      -0.63910000      -0.21660000
H        1.30810000      -0.94290000      -1.77870000
H        3.47370000      -0.31080000      -0.40290000
H        2.56500000       1.19160000      -0.63540000
H        2.90100000      -0.32390000       1.93070000
H        1.98060000       1.17670000       1.73280000
H        0.34850000      -0.95420000       2.14390000
H        0.47670000      -3.41410000       1.09380000
