19
Properties=species:S:1:pos:R:3 gdb_92822=T pbc="F F F"
O        0.13580000       1.41530000       0.01250000
C        0.08490000      -0.00090000       0.00640000
C        0.57740000      -0.60400000       1.35800000
C       -0.70250000      -0.69630000       2.17150000
C       -1.76580000      -0.67900000       1.37020000
C       -3.24380000      -0.43350000       1.51770000
C       -3.51970000       0.34350000       0.23460000
C       -2.50020000       0.29870000      -0.62950000
C       -1.36630000      -0.54370000      -0.09020000
H       -0.47900000       1.71910000       0.69120000
H        0.71030000      -0.30610000      -0.83660000
H        1.04380000      -1.58800000       1.20680000
H        1.33550000       0.04370000       1.81080000
H       -0.71790000      -0.72020000       3.25560000
H       -3.83370000      -1.36270000       1.54080000
H       -3.50180000       0.11910000       2.42840000
H       -4.46680000       0.84180000       0.05760000
H       -2.49350000       0.75470000      -1.61240000
H       -1.34010000      -1.52060000      -0.60140000
