13
Properties=species:S:1:pos:R:3 gdb_131092=T pbc="F F F"
O        0.88920000      -0.08550000       0.02550000
C        0.88910000       1.07490000       0.01680000
O        1.05960000       2.23410000       0.00800000
C       -1.83490000       1.60000000       0.01830000
N       -3.13150000       1.35330000       0.03040000
N       -3.79410000       2.60650000       0.02180000
C       -2.92580000       3.60500000       0.00160000
N       -3.20320000       4.94540000      -0.08350000
H       -4.10630000       5.23160000       0.26480000
H       -2.46350000       5.55700000       0.22920000
N       -1.72140000       3.02390000       0.00020000
H       -4.79910000       2.66340000       0.00260000
H       -0.83050000       3.49510000      -0.02030000
