12
Properties=species:S:1:pos:R:3 gdb_131438=T pbc="F F F"
O        0.09700000       1.35650000       0.06550000
C        0.07530000       0.01900000       0.08150000
N        0.07690000      -0.66970000      -1.04560000
O        0.05040000      -2.05830000      -0.67370000
C        0.03590000      -2.04830000       0.64700000
C        0.04910000      -0.81740000       1.23130000
C        0.02900000      -1.08810000       2.64620000
C        0.00610000      -2.44220000       2.75110000
O        0.01000000      -3.06860000       1.49840000
H        0.11190000       1.64000000      -0.85960000
H        0.03100000      -0.39260000       3.46960000
H       -0.01410000      -3.12140000       3.58560000
