18
Properties=species:S:1:pos:R:3 gdb_80503=T pbc="F F F"
C       -0.17090000       1.53340000      -0.13020000
C        0.02380000       0.04810000       0.07570000
N        1.21770000      -0.72640000      -0.28820000
C        2.42730000       0.09410000       0.07500000
C        2.06870000       0.06380000       1.59920000
N        1.97950000       1.20280000       2.47820000
C        0.76000000      -0.62370000       1.18590000
C        0.19000000      -1.72240000       1.90780000
N       -0.26560000      -2.59340000       2.51870000
H        0.69450000       2.14010000       0.13880000
H       -0.39650000       1.73020000      -1.18370000
H       -1.02290000       1.87760000       0.46380000
H       -0.85950000      -0.52010000      -0.21260000
H        3.33240000      -0.46050000      -0.17680000
H        2.46610000       1.07420000      -0.40780000
H        2.70500000      -0.67670000       2.08970000
H        2.89700000       1.49870000       2.79150000
H        1.52680000       1.99790000       2.04460000
