18
Properties=species:S:1:pos:R:3 gdb_7753=T pbc="F F F"
C       -0.08220000       1.56140000      -0.01590000
C        0.00950000       0.03010000       0.05350000
C        0.63060000      -0.55070000      -1.23620000
C        0.93740000      -2.03110000      -1.10260000
O        0.54260000      -2.85980000      -1.88850000
C        1.79700000      -2.40150000       0.10190000
C        1.58690000      -1.49090000       1.28370000
C        0.78310000      -0.42890000       1.26680000
H        0.91510000       2.00940000      -0.08880000
H       -0.66180000       1.88060000      -0.88780000
H       -0.56770000       1.96630000       0.87800000
H       -1.01830000      -0.35620000       0.13730000
H       -0.01590000      -0.39890000      -2.10390000
H        1.58150000      -0.02990000      -1.42080000
H        1.59520000      -3.44830000       0.35550000
H        2.85060000      -2.37400000      -0.21830000
H        2.11290000      -1.75670000       2.19750000
H        0.65770000       0.16120000       2.17220000
