18
Properties=species:S:1:pos:R:3 gdb_85632=T pbc="F F F"
C        0.01690000       1.57210000      -0.03160000
C        0.09820000       0.04870000       0.01430000
C        0.85630000      -0.60060000      -1.17140000
C        1.49470000      -1.82410000      -0.53730000
C        1.41270000      -1.80380000       0.80100000
C        0.77790000      -0.52640000       1.29550000
O        1.75220000       0.32130000       1.90060000
C        2.12040000      -2.84190000      -1.31010000
N        2.62120000      -3.65280000      -1.96850000
H        1.01200000       2.02390000       0.01140000
H       -0.47010000       1.90690000      -0.95300000
H       -0.55570000       1.96230000       0.81500000
H       -0.91860000      -0.36190000       0.00490000
H        0.19190000      -0.86460000      -1.99960000
H        1.62760000       0.05860000      -1.59160000
H        1.82590000      -2.55330000       1.46520000
H        0.04290000      -0.69500000       2.08810000
H        2.51850000       0.35980000       1.31710000
