20
Properties=species:S:1:pos:R:3 gdb_88773=T pbc="F F F"
C       -0.10730000       1.53290000      -0.17350000
C        0.04440000       0.03690000       0.00450000
C        1.38650000      -0.64550000      -0.13660000
C        0.70360000      -0.59500000       1.20900000
C        1.28520000       0.16600000       2.38190000
C        2.19920000      -0.69690000       3.30250000
N        3.49160000       0.00780000       3.34560000
C        3.35860000       1.00870000       2.58410000
O        2.17900000       1.23570000       1.95490000
H        0.75700000       2.07460000       0.21480000
H       -0.21840000       1.78330000      -1.23430000
H       -0.99820000       1.90380000       0.34640000
H       -0.79850000      -0.53310000      -0.38020000
H        1.44930000      -1.59520000      -0.65610000
H        2.24880000      -0.00140000      -0.26890000
H        0.24820000      -1.52380000       1.54660000
H        0.48490000       0.64900000       2.95390000
H        1.79580000      -0.80040000       4.31440000
H        2.34510000      -1.70530000       2.89910000
H        4.12590000       1.74430000       2.36840000
