15
Properties=species:S:1:pos:R:3 gdb_22326=T pbc="F F F"
N        0.09410000       1.30230000      -0.07290000
C       -0.01910000      -0.04780000      -0.02790000
C       -1.15290000      -0.79650000      -0.01390000
C       -0.84820000      -2.22350000      -0.00900000
O       -1.62360000      -3.15710000       0.00500000
C        0.67250000      -2.30380000      -0.02030000
C        1.22970000      -0.89780000      -0.03650000
N        1.47140000      -3.29810000      -0.01830000
O        0.83890000      -4.52980000      -0.00370000
H        0.98220000       1.73410000       0.11810000
H       -0.71990000       1.87620000       0.07230000
H       -2.16730000      -0.41940000      -0.00640000
H        1.83900000      -0.70080000      -0.92690000
H        1.86110000      -0.69100000       0.83690000
H        1.58600000      -5.13900000      -0.00530000
