15
Properties=species:S:1:pos:R:3 gdb_68967=T pbc="F F F"
C       -0.04920000       1.52840000      -0.11400000
C        0.03000000       0.03800000       0.00860000
C       -0.79210000      -0.78860000       0.94340000
C        0.72800000      -0.79650000       1.10770000
N        1.42610000      -1.85880000       0.41800000
C        1.16880000      -1.68580000      -0.81630000
O        0.41310000      -0.62430000      -1.19310000
C        1.32660000      -0.23580000       2.28520000
N        1.77830000       0.25690000       3.22890000
H        0.87810000       1.93040000      -0.53070000
H       -0.87990000       1.81920000      -0.76450000
H       -0.20980000       1.97570000       0.86990000
H       -1.34860000      -0.24260000       1.69610000
H       -1.24600000      -1.71000000       0.59490000
H        1.50930000      -2.31650000      -1.62770000
