21
Properties=species:S:1:pos:R:3 gdb_41400=T pbc="F F F"
C       -0.06940000       1.50920000       0.14230000
C        1.44960000       1.65670000      -0.15380000
C        1.61040000       0.14490000       0.08120000
C        2.61790000      -0.83920000      -0.54460000
C        2.63410000      -1.64120000       0.78970000
C        1.90410000      -0.44930000       1.48560000
O        0.68930000      -0.69710000       2.16540000
C       -0.32720000      -0.90480000       1.18400000
C        0.06220000      -0.03570000      -0.01120000
H       -0.32670000       1.79270000       1.16630000
H       -0.75610000       2.01020000      -0.54320000
H        1.63930000       1.92990000      -1.19690000
H        2.03180000       2.32400000       0.48890000
H        2.29600000      -1.36850000      -1.44600000
H        3.57990000      -0.36130000      -0.75420000
H        2.01210000      -2.53920000       0.76280000
H        3.61230000      -1.91090000       1.19330000
H        2.54380000       0.13420000       2.15300000
H       -0.37990000      -1.96590000       0.89430000
H       -1.28410000      -0.63000000       1.63940000
H       -0.31680000      -0.41710000      -0.96210000
