18
Properties=species:S:1:pos:R:3 gdb_104386=T pbc="F F F"
O       -0.09530000       1.44710000      -0.40180000
C        0.06330000       0.05820000      -0.14600000
C       -1.30700000      -0.57290000       0.07340000
O       -2.18210000      -0.23570000      -1.00450000
C       -1.39740000      -2.08170000       0.28920000
N       -2.67670000      -2.32090000       0.99410000
C       -2.84080000      -1.18810000       1.91320000
C       -1.99900000      -0.03900000       1.35220000
O       -1.88170000       1.07670000       1.80470000
H       -0.50000000       1.81760000       0.39760000
H        0.53890000      -0.37340000      -1.03300000
H        0.71600000      -0.12850000       0.71950000
H       -1.95490000       0.68000000      -1.22750000
H       -1.36850000      -2.63070000      -0.65360000
H       -0.56730000      -2.42600000       0.92030000
H       -3.41510000      -2.27450000       0.29920000
H       -3.88670000      -0.89960000       2.04370000
H       -2.44830000      -1.43340000       2.91080000
