16
Properties=species:S:1:pos:R:3 gdb_65017=T pbc="F F F"
O       -0.51710000       1.29050000      -0.34720000
C       -0.13900000      -0.01570000      -0.00540000
C       -0.27660000      -0.46480000       1.42230000
C       -1.25300000      -0.94640000       0.36490000
C        1.03570000      -0.50150000      -0.88660000
C        2.28280000       0.34610000      -0.60850000
O        3.35440000      -0.08530000      -0.28920000
C        1.31350000      -1.92750000      -0.74950000
N        1.50280000      -3.06060000      -0.63180000
H       -0.08460000       1.90680000       0.25280000
H        0.44300000      -1.17600000       1.81290000
H       -0.63030000       0.26940000       2.13820000
H       -2.24360000      -0.50750000       0.36150000
H       -1.19890000      -1.98340000       0.05580000
H        0.73860000      -0.29630000      -1.92530000
H        2.09470000       1.43380000      -0.72740000
