19
Properties=species:S:1:pos:R:3 gdb_124694=T pbc="F F F"
C        0.08960000       1.50800000      -0.16440000
C       -0.02100000      -0.01090000       0.04010000
C        0.71520000      -0.45840000       1.31060000
O        2.08110000      -0.08920000       1.18640000
C       -1.44800000      -0.48350000       0.07770000
N       -1.84450000      -1.49380000      -0.69690000
N       -3.14760000      -1.66360000      -0.39900000
C       -3.59590000      -0.79550000       0.53820000
C       -2.51840000      -0.00780000       0.87810000
H        1.13910000       1.80890000      -0.18350000
H       -0.38270000       1.81040000      -1.10330000
H       -0.40210000       2.05360000       0.64940000
H        0.46160000      -0.51830000      -0.80240000
H        0.25190000       0.01760000       2.19090000
H        0.60440000      -1.54700000       1.42620000
H        2.54020000      -0.36280000       1.98540000
H       -3.66770000      -2.37700000      -0.88020000
H       -4.61960000      -0.80460000       0.87830000
H       -2.50670000       0.79740000       1.59440000
