18
Properties=species:S:1:pos:R:3 gdb_38274=T pbc="F F F"
C       -0.01420000       1.58520000       0.15040000
N        1.47780000       1.24600000       0.06470000
C        1.11760000       0.04740000       0.99120000
C       -0.00690000       0.04070000      -0.05480000
O       -1.05700000      -0.81820000      -0.33380000
C       -1.49500000      -0.52560000      -1.66590000
O       -0.46950000      -0.50330000      -2.62480000
C        0.48860000       0.55910000      -2.44230000
C        1.09720000       0.26120000      -1.07870000
H       -0.31500000       1.96100000       1.13070000
H       -0.36520000       2.24710000      -0.64030000
H        1.84940000      -0.76290000       0.96140000
H        0.88830000       0.35850000       2.01270000
H       -2.17200000      -1.33210000      -1.94880000
H       -2.02740000       0.44110000      -1.65910000
H        1.19610000       0.46880000      -3.26870000
H       -0.00550000       1.53540000      -2.51620000
H        1.83520000      -0.54030000      -1.16530000
