18
Properties=species:S:1:pos:R:3 gdb_33827=T pbc="F F F"
C        0.03150000      -1.19700000       0.07780000
C        0.04550000       0.00500000       0.03370000
C        0.03250000       1.42620000      -0.06870000
C       -0.71120000       2.23640000      -1.15920000
C        0.44860000       3.25540000      -1.12750000
C        1.08570000       3.91030000      -2.31310000
C        0.40210000       4.75200000      -1.25570000
C        1.15800000       2.44620000      -0.06010000
N        0.31300000       2.25530000       1.10950000
H        0.02660000      -2.25730000       0.13110000
H       -0.77450000       1.69900000      -2.10820000
H       -1.70910000       2.58840000      -0.87630000
H        2.16990000       3.93600000      -2.35940000
H        0.60180000       3.80550000      -3.27880000
H       -0.54800000       5.21100000      -1.50990000
H        1.02370000       5.34780000      -0.59490000
H        2.22600000       2.28970000       0.04410000
H       -0.37000000       3.00410000       1.21930000
