15
Properties=species:S:1:pos:R:3 gdb_128750=T pbc="F F F"
C       -0.02640000       1.38680000       0.00840000
O        0.03470000      -0.03730000       0.00240000
C       -1.14720000      -0.66710000       0.00930000
N       -1.17730000      -1.93520000       0.00550000
C       -2.41100000      -2.56560000       0.01300000
C       -2.62500000      -3.92830000       0.00990000
N       -3.97300000      -4.04350000       0.02010000
N       -4.57620000      -2.84040000       0.02910000
N       -3.63420000      -1.94420000       0.02500000
H        1.00620000       1.73650000      -0.00010000
H       -0.54420000       1.76680000      -0.87970000
H       -0.52720000       1.76000000       0.90910000
H       -2.03210000      -0.02180000       0.01830000
H       -1.95240000      -4.76780000       0.00160000
H       -4.53890000      -4.87650000       0.02160000
