14
Properties=species:S:1:pos:R:3 gdb_22024=T pbc="F F F"
N        0.08360000       1.38930000       0.00610000
C        0.03260000       0.00740000       0.02380000
C       -1.09730000      -0.72730000       0.11650000
O       -1.13260000      -2.08900000       0.20200000
N        0.03230000      -2.81740000       0.19090000
C        1.14030000      -2.16370000       0.08940000
C        1.28490000      -0.72330000      -0.01100000
N        2.38810000      -0.05840000      -0.13390000
O        3.50200000      -0.91000000      -0.17700000
H        0.94790000       1.74430000      -0.37900000
H       -0.73880000       1.86340000      -0.33490000
H       -2.09980000      -0.31980000       0.14390000
H        2.02560000      -2.78730000       0.08130000
H        4.23380000      -0.28810000      -0.24060000
