19
Properties=species:S:1:pos:R:3 gdb_91160=T pbc="F F F"
C       -0.19600000       1.54440000      -0.01610000
C        0.03030000       0.03440000       0.01160000
C        0.88980000      -0.50930000      -1.18220000
C        2.02650000      -1.33410000      -0.49410000
C        2.90130000      -0.37350000       0.27800000
C        2.18990000       0.12400000       1.30450000
C        0.80790000      -0.48640000       1.27270000
C        1.22020000      -1.87450000       0.71780000
O        0.98670000      -2.98350000       1.08960000
H        0.75580000       2.08440000       0.00860000
H       -0.72350000       1.83910000      -0.92970000
H       -0.79730000       1.87420000       0.83800000
H       -0.94450000      -0.46680000       0.00520000
H        0.29500000      -1.14560000      -1.84380000
H        1.30780000       0.30260000      -1.78310000
H        2.52340000      -2.07010000      -1.12310000
H        3.92540000      -0.13880000       0.01750000
H        2.52600000       0.84040000       2.04280000
H        0.23630000      -0.47940000       2.19920000
