27
Properties=species:S:1:pos:R:3 gdb_57529=T pbc="F F F"
C       -0.10590000       1.56390000       0.14240000
C       -0.04030000       0.02730000       0.05810000
C        0.58850000      -0.52940000       1.34850000
C       -1.47390000      -0.52200000      -0.07260000
C        0.75470000      -0.42260000      -1.19510000
C        2.22160000      -0.01560000      -1.31100000
C        3.33620000      -0.78930000      -0.54060000
C        4.23530000      -0.68050000      -1.79970000
C        2.95980000      -0.38460000      -2.63160000
H        0.88310000       2.00850000       0.29040000
H       -0.53420000       1.99320000      -0.77050000
H       -0.73360000       1.87800000       0.98370000
H       -0.02220000      -0.26700000       2.21970000
H        0.66530000      -1.62180000       1.31390000
H        1.59190000      -0.12810000       1.51630000
H       -1.96330000      -0.14350000      -0.97700000
H       -1.47500000      -1.61650000      -0.12630000
H       -2.08760000      -0.22930000       0.78660000
H        0.69460000      -1.51820000      -1.27010000
H        0.22880000      -0.03510000      -2.08020000
H        2.33640000       1.05920000      -1.13130000
H        3.71250000      -0.36190000       0.39220000
H        3.03670000      -1.82520000      -0.34870000
H        4.89740000       0.18910000      -1.75050000
H        4.83240000      -1.55280000      -2.07600000
H        2.54570000      -1.29950000      -3.06930000
H        3.01740000       0.37670000      -3.41420000
