14
Properties=species:S:1:pos:R:3 gdb_53204=T pbc="F F F"
C       -0.02380000       1.50590000      -0.01590000
C        0.02760000       0.05310000       0.03280000
C        0.07430000      -1.14780000       0.07310000
C        0.10520000      -2.60070000       0.11730000
N        0.53350000      -3.14330000       1.42270000
C       -0.41280000      -3.89580000       1.79460000
O       -1.52000000      -4.03390000       0.99240000
C       -1.28580000      -3.23090000      -0.12330000
O       -2.05360000      -3.13490000      -1.02160000
H        0.71080000       1.90520000      -0.72310000
H       -1.01410000       1.85410000      -0.32810000
H        0.18840000       1.93870000       0.96750000
H        0.78190000      -2.98640000      -0.65810000
H       -0.45180000      -4.47040000       2.71230000
