15
Properties=species:S:1:pos:R:3 gdb_131668=T pbc="F F F"
O       -0.00130000       1.41320000       0.00700000
C        0.00950000       0.00020000       0.00190000
C       -1.41920000      -0.45320000       0.01250000
C       -2.56610000       0.28760000       0.02380000
C       -3.61910000      -0.67150000       0.02980000
N       -3.17720000      -1.91000000       0.02290000
N       -1.81490000      -1.78170000       0.01220000
C       -0.98040000      -2.90550000       0.00230000
O       -1.35350000      -4.04260000       0.00220000
H        0.90990000       1.72010000      -0.00020000
H        0.52440000      -0.39520000      -0.88950000
H        0.53950000      -0.40140000       0.88160000
H       -2.63120000       1.36210000       0.02730000
H       -4.68440000      -0.48750000       0.03900000
H        0.08370000      -2.60710000      -0.00560000
