25
Properties=species:S:1:pos:R:3 gdb_64119=T pbc="F F F"
C        0.39390000       1.39700000       0.28280000
C       -0.09160000      -0.03210000      -0.02530000
C       -1.62070000      -0.03900000      -0.13610000
C        0.58390000      -0.58300000      -1.30510000
C        1.98300000      -1.05950000      -0.86480000
C        1.87850000      -1.38400000       0.66180000
C        2.24000000      -2.83510000       0.98830000
O        2.71390000      -0.50530000       1.43280000
C        0.42100000      -1.03270000       1.03710000
H        1.47620000       1.43500000       0.42240000
H        0.11900000       2.08330000      -0.52640000
H       -0.06670000       1.76880000       1.20500000
H       -1.96190000       0.63290000      -0.93200000
H       -1.99960000      -1.04250000      -0.36040000
H       -2.08780000       0.29450000       0.79740000
H        0.00180000      -1.43520000      -1.67790000
H        0.61990000       0.15460000      -2.11350000
H        2.32450000      -1.92160000      -1.44600000
H        2.72660000      -0.26780000      -0.99720000
H        3.28610000      -3.04300000       0.73040000
H        2.10810000      -3.03230000       2.05660000
H        1.61560000      -3.53610000       0.42460000
H        3.62760000      -0.67590000       1.17960000
H        0.37370000      -0.64630000       2.05910000
H       -0.18950000      -1.94260000       0.99800000
