18
Properties=species:S:1:pos:R:3 gdb_73643=T pbc="F F F"
C       -0.09350000       1.47700000       0.02580000
C        0.01950000      -0.03660000      -0.01960000
C       -1.31620000      -0.79960000      -0.08770000
O       -1.06400000      -2.08970000       0.45300000
C       -0.14840000      -1.91560000       1.52570000
C        0.80790000      -0.82840000       1.06500000
O        1.74000000      -1.30730000       0.04150000
C        1.07490000      -0.61490000      -0.94880000
N        1.30300000      -0.51150000      -2.17610000
H        0.88620000       1.94650000       0.15130000
H       -0.52010000       1.85070000      -0.91010000
H       -0.73990000       1.79860000       0.84890000
H       -2.07500000      -0.26410000       0.50750000
H       -1.68850000      -0.92620000      -1.10670000
H       -0.66370000      -1.58330000       2.44310000
H        0.34260000      -2.87220000       1.71870000
H        1.33470000      -0.29050000       1.85440000
H        2.12160000      -1.05450000      -2.45590000
