24
Properties=species:S:1:pos:R:3 gdb_113186=T pbc="F F F"
C        0.24320000       0.63150000      -1.77980000
C        0.05320000      -0.12570000      -0.45650000
C        0.51730000       0.71010000       0.74530000
C       -1.38390000      -0.62560000      -0.29220000
C       -2.47300000       0.43420000      -0.31700000
N       -1.66810000      -1.88840000      -1.00850000
C       -1.68910000      -1.87230000       0.47290000
C       -0.69200000      -2.80290000       1.12830000
O       -1.00820000      -4.15450000       0.83510000
H        1.30290000       0.85000000      -1.94590000
H       -0.11530000       0.03360000      -2.62330000
H       -0.29040000       1.58790000      -1.78460000
H        0.68450000      -1.01750000      -0.51440000
H        0.39630000       0.16360000       1.68640000
H        1.57500000       0.97390000       0.64440000
H       -0.04440000       1.64700000       0.82840000
H       -2.50130000       0.95120000      -1.28170000
H       -3.45650000      -0.01600000      -0.14910000
H       -2.32010000       1.19020000       0.45980000
H       -2.61760000      -1.88300000      -1.37310000
H       -2.67380000      -1.90830000       0.93790000
H        0.33390000      -2.56320000       0.81880000
H       -0.74150000      -2.70290000       2.21790000
H       -1.06300000      -4.20180000      -0.12730000
