19
Properties=species:S:1:pos:R:3 gdb_83291=T pbc="F F F"
C       -0.23030000       1.55750000       0.01670000
C        0.01650000       0.05170000      -0.02960000
C        0.89220000      -0.48440000      -1.18470000
C        1.28340000      -1.88330000      -0.68170000
C        1.95420000      -1.31890000       0.59130000
C        2.89640000      -0.28110000      -0.06840000
O        2.14200000       0.22670000      -1.18270000
C        0.81690000      -0.47970000       1.18240000
O        0.60420000      -0.24310000       2.34260000
H        0.70700000       2.10170000      -0.12510000
H       -0.92500000       1.86810000      -0.76960000
H       -0.65480000       1.83650000       0.98470000
H       -0.94520000      -0.48100000      -0.03910000
H        0.45760000      -0.40720000      -2.18160000
H        0.42890000      -2.53300000      -0.47710000
H        1.98270000      -2.39270000      -1.34880000
H        2.43640000      -1.99690000       1.29270000
H        3.16960000       0.54010000       0.60340000
H        3.81620000      -0.75850000      -0.42990000
