18
Properties=species:S:1:pos:R:3 gdb_52999=T pbc="F F F"
C        0.00150000       1.47910000      -0.08130000
C       -0.02150000       0.02690000      -0.00310000
C       -0.04010000      -1.17760000       0.06160000
C       -0.03000000      -2.59250000       0.17200000
N       -0.22570000      -3.49070000      -1.01250000
C       -1.13970000      -3.60380000       0.14390000
C       -0.43260000      -4.50230000       1.15360000
C        0.77620000      -3.48620000       1.15020000
O        2.01760000      -3.93020000       0.69650000
H        0.78250000       1.89370000       0.56580000
H        0.20370000       1.82050000      -1.10270000
H       -0.95430000       1.91380000       0.23250000
H       -0.68620000      -2.93130000      -1.72900000
H       -2.20140000      -3.42490000       0.02890000
H       -0.93320000      -4.54780000       2.12320000
H       -0.19800000      -5.51150000       0.80680000
H        0.92790000      -3.01410000       2.12240000
H        1.87600000      -4.19530000      -0.22300000
