20
Properties=species:S:1:pos:R:3 gdb_10063=T pbc="F F F"
C       -1.51120000      -0.23110000       0.01440000
C        0.01000000      -0.09400000       0.08780000
C        0.73640000      -0.62480000      -1.16950000
C        2.23660000      -0.28740000      -1.13750000
O        2.36400000       1.12650000      -1.13740000
C        0.55520000      -2.06510000      -1.34700000
C        0.42610000      -3.25640000      -1.47240000
C        0.26140000      -4.69440000      -1.63580000
H       -1.91850000       0.33570000      -0.83060000
H       -1.80750000      -1.27690000      -0.11180000
H       -1.98340000       0.14780000       0.92600000
H        0.29190000       0.95570000       0.21050000
H        0.39200000      -0.63440000       0.96290000
H        0.32030000      -0.10430000      -2.04450000
H        2.68880000      -0.73530000      -0.23900000
H        2.72600000      -0.73350000      -2.01540000
H        3.29600000       1.34510000      -1.05140000
H        1.16690000      -5.15500000      -2.04640000
H        0.04730000      -5.18380000      -0.67920000
H       -0.56450000      -4.92620000      -2.31760000
