22
Properties=species:S:1:pos:R:3 gdb_103609=T pbc="F F F"
C       -0.19430000       1.56200000       0.00790000
C        0.07020000       0.05170000       0.04320000
C        0.77400000      -0.49310000      -1.20870000
C        2.16210000       0.10160000      -1.44020000
C        0.69750000      -2.05240000      -1.35700000
N       -0.14310000      -1.84280000      -2.53570000
C       -0.78560000      -2.75420000      -3.44480000
C       -0.12660000      -0.47400000      -2.47590000
O       -0.63950000       0.37190000      -3.16760000
H        0.73560000       2.13810000       0.03570000
H       -0.73400000       1.83800000      -0.90210000
H       -0.79350000       1.86610000       0.87150000
H        0.67250000      -0.20430000       0.92560000
H       -0.88520000      -0.47570000       0.16040000
H        2.80250000      -0.04350000      -0.56270000
H        2.65370000      -0.36470000      -2.30000000
H        2.09780000       1.17420000      -1.64070000
H        1.65070000      -2.55010000      -1.57200000
H        0.19100000      -2.57520000      -0.53670000
H       -1.49680000      -3.40860000      -2.92540000
H       -1.32920000      -2.15770000      -4.18170000
H       -0.05600000      -3.38420000      -3.96880000
