14
Properties=species:S:1:pos:R:3 gdb_26442=T pbc="F F F"
O       -1.00850000       0.32890000      -0.03700000
C        0.16630000      -0.41130000      -0.17870000
C        1.16900000       0.35050000      -1.04960000
O        0.88490000       1.41770000      -1.53130000
C        0.77750000      -0.69030000       1.16060000
C        0.58720000      -0.19970000       2.40850000
N        1.45950000      -0.83800000       3.28530000
C        2.11870000      -1.65770000       2.53870000
O        1.76750000      -1.63600000       1.22710000
H       -0.86960000       1.13580000      -0.56010000
H       -0.02280000      -1.37430000      -0.68820000
H        2.15500000      -0.12880000      -1.19870000
H       -0.11720000       0.54600000       2.73560000
H        2.89870000      -2.34830000       2.81790000
