23
Properties=species:S:1:pos:R:3 gdb_91698=T pbc="F F F"
C       -0.21530000       1.54220000       0.00510000
C        0.02650000       0.03430000       0.00110000
C        0.91280000      -0.48340000      -1.17930000
C        2.02060000      -1.32010000      -0.45540000
C        1.20960000      -1.91600000       0.71770000
C        0.79360000      -0.52620000       1.25380000
C        2.15370000       0.15240000       1.30980000
C        2.89090000      -0.31180000       0.29200000
C        4.24610000       0.11200000      -0.16850000
H        0.73030000       2.09290000       0.03980000
H       -0.75050000       1.85630000      -0.89770000
H       -0.81640000       1.84820000       0.86910000
H       -0.94670000      -0.46940000      -0.03780000
H        0.33600000      -1.10970000      -1.86700000
H        1.34260000       0.33550000      -1.76440000
H        2.55490000      -2.01720000      -1.10400000
H        0.36340000      -2.53380000       0.39660000
H        1.82920000      -2.47650000       1.42230000
H        0.20640000      -0.50110000       2.17370000
H        2.42430000       0.94900000       1.99300000
H        4.67480000       0.87510000       0.48770000
H        4.94070000      -0.73720000      -0.20420000
H        4.21030000       0.52340000      -1.18620000
