19
Properties=species:S:1:pos:R:3 gdb_97636=T pbc="F F F"
C       -0.11190000       1.56390000       0.05880000
C        0.15210000       0.04920000      -0.02480000
C        0.80270000      -0.48480000       1.16730000
C        1.32860000      -0.89310000       2.17230000
C        2.01110000      -1.42030000       3.34760000
C        1.93590000      -2.96760000       3.38990000
O        2.68870000      -3.51070000       4.45340000
C        3.48120000      -0.98670000       3.32150000
O        4.00580000      -0.32480000       4.17360000
H        0.82350000       2.11480000       0.18720000
H       -0.59760000       1.91560000      -0.85600000
H       -0.76080000       1.79890000       0.90670000
H       -0.79470000      -0.48130000      -0.18840000
H        0.77330000      -0.16820000      -0.90300000
H        1.57600000      -1.01000000       4.26820000
H        0.88000000      -3.27020000       3.42000000
H        2.36840000      -3.37500000       2.47080000
H        2.31900000      -3.19320000       5.28400000
H        4.03250000      -1.33990000       2.42180000
