15
Properties=species:S:1:pos:R:3 gdb_133230=T pbc="F F F"
C       -0.02940000       1.40320000      -0.03320000
N       -0.00170000      -0.05160000      -0.00080000
N       -0.02310000      -0.67000000      -1.19420000
C        0.00030000      -1.95390000      -1.20290000
F       -0.02130000      -2.54910000      -2.39320000
C        0.04730000      -2.77280000      -0.03650000
C        0.06840000      -2.14210000       1.15740000
C        0.04420000      -0.68940000       1.24700000
N        0.05950000       0.04830000       2.30290000
H        0.85860000       1.80420000       0.46350000
H       -0.06360000       1.70740000      -1.07750000
H       -0.90290000       1.77180000       0.51180000
H        0.06440000      -3.85160000      -0.13580000
H        0.10410000      -2.69490000       2.08950000
H        0.09300000      -0.53520000       3.13630000
