20
Properties=species:S:1:pos:R:3 gdb_83955=T pbc="F F F"
C        0.05120000       1.41190000      -0.25720000
N        0.00900000      -0.01500000       0.04370000
C       -1.20150000      -0.50150000       0.78850000
C       -1.29320000      -1.99590000       0.47440000
O       -0.16260000      -2.68780000       1.00260000
C        1.06060000      -1.95210000       1.01620000
C        0.78900000      -0.46520000       1.24770000
C       -0.46050000      -0.32410000       2.14590000
O       -0.52390000       0.96820000       2.71310000
H        1.04340000       1.65900000      -0.65070000
H       -0.67660000       1.62540000      -1.04830000
H       -0.15720000       2.06650000       0.59990000
H       -2.13700000       0.03700000       0.60740000
H       -2.16950000      -2.45780000       0.94390000
H       -1.36270000      -2.12370000      -0.61530000
H        1.65890000      -2.38670000       1.82490000
H        1.60240000      -2.06700000       0.06690000
H        1.68360000       0.11060000       1.49800000
H       -0.62200000      -1.10280000       2.90270000
H       -1.40430000       1.08740000       3.08440000
