23
Properties=species:S:1:pos:R:3 gdb_103827=T pbc="F F F"
C       -0.06520000       1.50180000      -0.23870000
C        0.01300000       0.01120000       0.09910000
O        0.70650000      -0.20170000       1.33130000
C       -1.35740000      -0.63550000       0.11290000
C       -1.95160000      -1.27520000      -1.12200000
C       -1.54480000      -2.13570000       0.05170000
C       -0.34760000      -3.06080000      -0.07400000
C       -2.66030000      -2.69620000       0.90630000
O       -3.17050000      -3.86850000       0.28140000
H        0.93350000       1.94650000      -0.23100000
H       -0.51510000       1.65840000      -1.22410000
H       -0.68190000       2.03330000       0.49720000
H        0.64130000      -0.48450000      -0.64820000
H        0.18250000       0.20230000       2.03180000
H       -2.06660000      -0.10310000       0.74830000
H       -3.00750000      -1.13180000      -1.32530000
H       -1.33210000      -1.31980000      -2.01260000
H        0.36300000      -2.71450000      -0.82800000
H        0.19000000      -3.13510000       0.87730000
H       -0.68520000      -4.05970000      -0.36340000
H       -2.27010000      -2.92720000       1.91120000
H       -3.45290000      -1.93990000       1.02570000
H       -3.75040000      -4.31310000       0.90620000
