19
Properties=species:S:1:pos:R:3 gdb_105692=T pbc="F F F"
C        1.13170000      -0.02530000       0.45870000
C        0.04510000      -0.07940000      -0.61670000
C       -1.36560000      -0.31280000      -0.10160000
C       -2.45730000      -0.26080000      -1.15170000
O       -2.47750000       1.01080000      -1.81210000
C       -3.23630000       1.98200000      -1.25360000
O       -3.27300000       3.09120000      -1.69120000
C       -1.65570000      -1.05490000       1.13470000
O       -1.73320000       0.37390000       1.10660000
H        2.08140000       0.29200000       0.01980000
H        0.86230000       0.68640000       1.24330000
H        1.29750000      -1.00210000       0.92400000
H        0.03290000       0.86160000      -1.17820000
H        0.27140000      -0.86520000      -1.34930000
H       -2.28360000      -1.00010000      -1.93850000
H       -3.43010000      -0.46170000      -0.68900000
H       -3.80800000       1.62860000      -0.37630000
H       -2.60790000      -1.57270000       1.24760000
H       -0.83920000      -1.46360000       1.72490000
