21
Properties=species:S:1:pos:R:3 gdb_109619=T pbc="F F F"
C       -1.17300000       2.20720000      -0.39960000
C       -0.90580000       0.96140000      -1.24150000
N       -1.64180000      -0.17870000      -0.69960000
C       -1.36390000      -1.54610000      -1.11110000
C       -0.31320000      -1.93020000      -2.13050000
C       -1.01870000      -1.07970000       0.28650000
C        0.41920000      -0.94460000       0.76500000
C       -1.92460000      -1.46290000       1.35750000
N       -2.62320000      -1.78990000       2.21900000
H       -0.67840000       3.07910000      -0.83830000
H       -2.24630000       2.40430000      -0.33800000
H       -0.79530000       2.08260000       0.62030000
H       -1.27870000       1.11410000      -2.26100000
H        0.17830000       0.79730000      -1.32490000
H       -2.27160000      -2.14300000      -1.19700000
H        0.60980000      -1.35460000      -2.04930000
H       -0.06200000      -2.99050000      -2.02560000
H       -0.70830000      -1.78450000      -3.14150000
H        1.11040000      -0.72730000      -0.04860000
H        0.50370000      -0.14830000       1.51050000
H        0.73840000      -1.87800000       1.23770000
