18
Properties=species:S:1:pos:R:3 gdb_106337=T pbc="F F F"
C        0.10330000       1.53470000       0.05370000
C        0.09750000       0.00210000       0.06750000
C        0.66380000      -0.57490000       1.32750000
C        0.29950000      -0.29830000       2.81600000
C        1.60930000      -1.12260000       2.75520000
C        0.97220000      -2.05350000       1.69310000
O        2.09050000      -0.24640000       1.67170000
C        2.51180000      -1.46190000       3.82910000
N        3.20750000      -1.75450000       4.70410000
H        1.11670000       1.91760000       0.20030000
H       -0.27310000       1.91370000      -0.90020000
H       -0.52880000       1.94170000       0.84940000
H       -0.92340000      -0.38200000      -0.05210000
H        0.68030000      -0.38810000      -0.77550000
H        0.42960000       0.73080000       3.14930000
H       -0.58770000      -0.78230000       3.23010000
H        0.14480000      -2.69330000       2.00720000
H        1.68850000      -2.55470000       1.04200000
