17
Properties=species:S:1:pos:R:3 gdb_48038=T pbc="F F F"
O       -0.00990000      -0.09580000       0.09800000
C        0.02380000       1.11370000       0.09500000
C        1.22960000       1.89930000       0.11290000
C        2.22650000       2.58190000       0.12910000
C        3.42110000       3.41000000       0.14200000
C        3.16690000       4.86340000      -0.31510000
C        4.43820000       5.67510000      -0.28510000
C        4.46900000       7.06950000       0.17040000
O        4.93640000       6.01400000       1.01280000
H       -0.90800000       1.71560000       0.07710000
H        3.83580000       3.42600000       1.15790000
H        4.18840000       2.94570000      -0.49170000
H        2.75480000       4.86370000      -1.33070000
H        2.42210000       5.32400000       0.34110000
H        5.21590000       5.35280000      -0.98110000
H        5.23680000       7.74540000      -0.20280000
H        3.54460000       7.54840000       0.49070000
