11
Properties=species:S:1:pos:R:3 gdb_8997=T pbc="F F F"
O        0.18650000       0.10460000      -0.09270000
C        0.32000000       1.27800000      -0.22460000
O        0.63750000       2.08890000       0.82250000
C        0.83190000       3.45330000       0.54290000
C        2.17470000       3.71120000      -0.13300000
O        2.87540000       2.85090000      -0.59190000
C        2.53820000       5.13870000      -0.21080000
N        2.78790000       6.26660000      -0.25900000
H        0.18190000       1.83260000      -1.17130000
H        0.04290000       3.87170000      -0.10150000
H        0.78890000       3.99250000       1.49390000
