19
Properties=species:S:1:pos:R:3 gdb_92924=T pbc="F F F"
O       -0.07930000       1.48760000       0.10280000
C        0.03620000       0.07160000       0.05310000
C        0.73280000      -0.49300000       1.29790000
C        0.54230000      -1.98180000       1.42620000
C       -0.37030000      -2.67090000       0.74500000
C       -1.34580000      -2.03120000      -0.22950000
C       -1.37530000      -0.49320000      -0.06030000
C       -1.03360000      -2.43220000      -1.60500000
C       -0.77200000      -2.75990000      -2.73200000
H        0.80810000       1.85790000       0.14700000
H        0.60250000      -0.23530000      -0.84060000
H        1.80550000      -0.25630000       1.27270000
H        0.33090000       0.02190000       2.18270000
H        1.19720000      -2.50500000       2.11890000
H       -0.44510000      -3.74850000       0.85860000
H       -2.35130000      -2.41240000      -0.00220000
H       -1.92850000      -0.24580000       0.85300000
H       -1.89470000      -0.02680000      -0.90090000
H       -0.54330000      -3.05150000      -3.72700000
