19
Properties=species:S:1:pos:R:3 gdb_112342=T pbc="F F F"
C       -0.04440000       1.55260000       0.06870000
C       -0.00100000       0.02330000       0.01270000
C        0.67330000      -0.52480000      -1.26120000
N        2.08790000      -0.23450000      -1.35530000
C        2.87900000      -1.37860000      -1.25600000
O        4.09000000      -1.38260000      -1.17270000
C        1.93760000      -2.51410000      -1.29270000
C        0.67530000      -2.04490000      -1.31180000
N       -0.51910000      -2.72130000      -1.29600000
H        0.96050000       1.98760000       0.08830000
H       -0.57160000       1.96890000      -0.79710000
H       -0.56150000       1.89450000       0.97000000
H        0.53390000      -0.37710000       0.88120000
H       -1.02160000      -0.37500000       0.06150000
H        0.13280000      -0.12800000      -2.13780000
H        2.47610000       0.66280000      -1.11830000
H        2.26540000      -3.54300000      -1.30240000
H       -0.48490000      -3.70070000      -1.53450000
H       -1.31640000      -2.24530000      -1.68990000
