14
Properties=species:S:1:pos:R:3 gdb_14090=T pbc="F F F"
O        0.06170000       1.29600000      -0.04930000
C        0.09340000      -0.07970000       0.11670000
C       -0.49350000      -0.70950000       1.35470000
C       -1.25230000      -0.77810000       0.06000000
O       -2.40120000       0.04060000      -0.20770000
C       -2.92620000      -0.91570000      -1.17020000
C       -1.74870000      -1.85690000      -0.84570000
O       -1.39570000      -2.94990000      -1.17160000
H       -0.84370000       1.52770000      -0.30500000
H        0.94460000      -0.56050000      -0.35780000
H       -0.06550000      -1.63630000       1.72310000
H       -0.90310000      -0.04020000       2.10420000
H       -3.91900000      -1.28030000      -0.88870000
H       -2.94170000      -0.51960000      -2.19110000
