18
Properties=species:S:1:pos:R:3 gdb_33140=T pbc="F F F"
C       -0.01230000       1.39900000      -0.02280000
O        0.02030000      -0.00560000      -0.02260000
C       -1.26950000      -0.58070000       0.02360000
C       -1.14100000      -2.06930000       0.02130000
C        0.02120000      -2.80700000      -0.01780000
N       -0.31050000      -4.13340000      -0.00470000
C       -1.68330000      -4.27610000       0.04290000
C       -2.21200000      -3.00500000       0.05950000
O       -3.52150000      -2.60990000       0.10420000
H        1.02140000       1.75200000      -0.05970000
H       -0.55470000       1.79680000      -0.89590000
H       -0.49180000       1.79850000       0.88560000
H       -1.80900000      -0.23700000       0.92460000
H       -1.87120000      -0.23960000      -0.83820000
H        1.04460000      -2.47530000      -0.05360000
H        0.34460000      -4.89300000      -0.02650000
H       -2.15490000      -5.24500000       0.06050000
H       -4.08290000      -3.39040000       0.12410000
