21
Properties=species:S:1:pos:R:3 gdb_95358=T pbc="F F F"
C       -0.39990000       1.44310000       0.09790000
C        0.04340000      -0.01240000      -0.01590000
C        1.13930000      -0.26750000      -1.09140000
O        1.85530000      -1.44970000      -0.71760000
C        1.59550000      -1.74140000       0.65930000
C        2.79290000      -1.75140000       1.62790000
C        2.20850000      -1.12190000       2.92800000
C        1.09340000      -0.23550000       2.39770000
C        0.76360000      -0.59000000       1.15910000
H        0.44690000       2.08790000       0.35500000
H       -0.82740000       1.80180000      -0.84400000
H       -1.16190000       1.56220000       0.87440000
H       -0.82380000      -0.64260000      -0.26130000
H        0.72570000      -0.41660000      -2.09450000
H        1.82360000       0.59460000      -1.12760000
H        1.05540000      -2.70130000       0.70040000
H        3.22630000      -2.74280000       1.78290000
H        3.57060000      -1.09930000       1.21750000
H        1.82530000      -1.89580000       3.60800000
H        2.95570000      -0.55800000       3.49720000
H        0.67180000       0.58730000       2.96460000
