17
Properties=species:S:1:pos:R:3 gdb_101079=T pbc="F F F"
O        0.10100000       1.40670000      -0.26120000
C        0.10600000       0.00240000      -0.13710000
C       -1.31150000      -0.50810000       0.15650000
O       -2.20260000      -0.00310000      -0.82790000
C       -1.38950000      -2.03730000       0.20380000
C       -2.65580000      -2.71050000      -0.14400000
O       -1.59290000      -2.62770000      -1.10150000
C       -0.44710000      -2.70540000       1.06600000
C        0.33660000      -3.23040000       1.81060000
H       -0.66540000       1.61490000      -0.81100000
H        0.47960000      -0.48990000      -1.05210000
H        0.78470000      -0.25650000       0.68010000
H       -1.64690000      -0.09750000       1.11520000
H       -2.07290000      -0.56190000      -1.60880000
H       -2.84450000      -3.70700000       0.24770000
H       -3.52620000      -2.09770000      -0.36300000
H        1.03090000      -3.70230000       2.46190000
