16
Properties=species:S:1:pos:R:3 gdb_86478=T pbc="F F F"
C       -0.04040000       1.54870000       0.09680000
N       -0.03680000       0.10240000       0.13660000
C       -1.26370000      -0.59730000       0.53360000
C       -0.37290000      -1.67590000       1.25350000
C        0.74780000      -0.57460000       1.17520000
C       -0.79460000      -2.07660000       2.59000000
N       -1.13230000      -2.35620000       3.65860000
C       -0.09160000      -2.83690000       0.41280000
N        0.13400000      -3.74560000      -0.26320000
H        0.96230000       1.91080000      -0.14960000
H       -0.72260000       1.89180000      -0.68700000
H       -0.35090000       2.00660000       1.05400000
H       -1.87590000      -0.05810000       1.27290000
H       -1.89370000      -0.95520000      -0.28410000
H        1.74210000      -0.91410000       0.87550000
H        0.80780000      -0.02790000       2.12880000
