25
Properties=species:S:1:pos:R:3 gdb_38367=T pbc="F F F"
C       -0.06700000       1.56270000       0.09450000
C        1.48520000       1.65610000       0.03870000
C        1.56040000       0.10850000       0.23780000
C        0.01340000       0.00960000       0.04450000
C       -0.52190000      -0.64820000      -1.23450000
C        0.28820000      -0.52290000      -2.53910000
C        0.68770000       0.87700000      -3.05760000
C        2.03590000       1.43250000      -2.54600000
C        2.07450000       2.25660000      -1.24480000
H       -0.48660000       1.94110000       1.03080000
H       -0.60460000       2.04030000      -0.72950000
H        1.90190000       2.21380000       0.88300000
H        2.17840000      -0.44640000      -0.47210000
H        1.87950000      -0.17310000       1.24450000
H       -0.49120000      -0.46350000       0.89240000
H       -0.65110000      -1.72300000      -1.04950000
H       -1.53430000      -0.25510000      -1.40620000
H        1.19960000      -1.13000000      -2.46050000
H       -0.31290000      -1.01200000      -3.31560000
H        0.77710000       0.79320000      -4.14720000
H       -0.12010000       1.59960000      -2.88780000
H        2.74140000       0.59490000      -2.46650000
H        2.45210000       2.08140000      -3.32660000
H        1.57010000       3.21800000      -1.41850000
H        3.12880000       2.50580000      -1.06440000
