21
Properties=species:S:1:pos:R:3 gdb_119196=T pbc="F F F"
C        0.06050000       1.57330000       0.16440000
C       -0.02990000       0.04940000       0.27200000
C       -1.34330000      -0.50380000      -0.29700000
C       -1.44930000      -2.01570000      -0.17200000
N       -1.78340000      -2.55030000       1.16950000
C       -2.73560000      -2.76030000       0.07610000
C       -4.08660000      -2.09610000       0.17430000
C       -0.45940000      -2.75180000      -0.93370000
N        0.33970000      -3.33510000      -1.53420000
H        1.00260000       1.94290000       0.57990000
H        0.00550000       1.90240000      -0.87920000
H       -0.75690000       2.05970000       0.70850000
H        0.81630000      -0.40880000      -0.25410000
H        0.05150000      -0.25770000       1.32130000
H       -2.18670000      -0.05450000       0.23400000
H       -1.44300000      -0.22720000      -1.35410000
H       -1.25250000      -3.39470000       1.36670000
H       -2.76130000      -3.75770000      -0.36040000
H       -4.02580000      -1.12620000       0.67070000
H       -4.52600000      -1.95970000      -0.81900000
H       -4.76480000      -2.72640000       0.75900000
