15
Properties=species:S:1:pos:R:3 gdb_34953=T pbc="F F F"
N       -0.05310000      -1.14120000      -0.06620000
C       -0.00760000       0.00940000       0.03340000
C        0.03700000       1.46170000       0.07480000
C       -0.33550000       2.09070000       1.44000000
N        0.67180000       1.40840000       2.31660000
C        1.64750000       2.30160000       1.64870000
C        0.61450000       3.38800000       1.32160000
O        1.06050000       3.52650000      -0.03010000
C        1.44660000       2.13160000       0.08440000
H       -0.53300000       1.87620000      -0.75970000
H       -1.37740000       2.10000000       1.75060000
H        0.55390000       1.72660000       3.27740000
H        2.64780000       2.44330000       2.05130000
H        0.38880000       4.30910000       1.85710000
H        2.20760000       1.80610000      -0.62010000
