13
Properties=species:S:1:pos:R:3 gdb_129529=T pbc="F F F"
N       -0.14060000       1.29470000       0.05450000
C       -0.11510000      -0.00560000      -0.32090000
O        0.50810000      -0.50300000      -1.21400000
O       -0.99950000      -0.71290000       0.50370000
C       -1.06090000      -2.04710000       0.32400000
C       -1.96190000      -2.83800000      -0.31080000
C       -1.47620000      -4.14020000      -0.02480000
N       -0.39170000      -4.12570000       0.71300000
O       -0.12370000      -2.77390000       0.94160000
H        0.53790000       1.90740000      -0.36240000
H       -0.57800000       1.56150000       0.91910000
H       -2.81740000      -2.53630000      -0.88880000
H       -1.88160000      -5.09390000      -0.33290000
