18
Properties=species:S:1:pos:R:3 gdb_65683=T pbc="F F F"
C       -0.15280000       1.71310000       0.19230000
C        0.00190000       0.19580000       0.07110000
C        1.14830000      -0.22610000      -0.91180000
C        1.99190000      -0.60150000       0.30990000
O        3.14530000      -0.86380000       0.48360000
C        0.78800000      -0.44680000       1.25870000
N       -1.27670000      -0.46040000      -0.17750000
C       -1.95060000      -0.34890000      -1.35280000
O       -1.53750000       0.23140000      -2.33560000
H        0.81570000       2.18630000       0.38420000
H       -0.55960000       2.12060000      -0.73600000
H       -0.82580000       1.96910000       1.01720000
H        0.89160000      -1.10160000      -1.51410000
H        1.54720000       0.54500000      -1.57350000
H        0.93980000       0.16660000       2.15020000
H        0.39680000      -1.42490000       1.56020000
H       -1.75460000      -0.88440000       0.60250000
H       -2.92830000      -0.87030000      -1.32240000
