21
Properties=species:S:1:pos:R:3 gdb_73688=T pbc="F F F"
C       -0.17720000       1.59960000       0.15490000
C        0.07390000       0.10390000       0.07090000
O       -1.18570000      -0.53240000      -0.08700000
C       -1.18040000      -1.79850000       0.55710000
C       -0.27440000      -1.61460000       1.78110000
C        0.76640000      -0.58320000       1.29920000
C        2.07110000      -1.16050000       0.71280000
C        1.78190000      -1.22530000      -0.79230000
O        0.91990000      -0.12520000      -1.04630000
H        0.76700000       2.13740000       0.27070000
H       -0.66170000       1.93890000      -0.76390000
H       -0.83180000       1.82810000       0.99950000
H       -2.21420000      -2.04940000       0.81160000
H       -0.79940000      -2.58250000      -0.11470000
H       -0.85550000      -1.20120000       2.61090000
H        0.17500000      -2.55060000       2.12350000
H        0.98200000       0.14530000       2.08220000
H        2.90210000      -0.47340000       0.89910000
H        2.34040000      -2.13120000       1.13750000
H        2.67310000      -1.10360000      -1.41470000
H        1.30320000      -2.17590000      -1.07210000
