18
Properties=species:S:1:pos:R:3 gdb_35813=T pbc="F F F"
N       -0.55510000      -0.99360000      -0.80320000
C       -0.33340000       0.07400000      -0.41900000
C       -0.03760000       1.41480000       0.07580000
C       -0.46750000       1.65270000       1.55030000
C        0.34560000       2.89430000       1.95440000
C        1.69780000       2.68720000       1.27840000
O        2.48620000       1.66080000       1.92380000
C        2.42370000       0.80730000       0.75970000
C        1.46870000       1.77700000       0.03870000
H       -0.57330000       2.12760000      -0.56310000
H       -1.54740000       1.78030000       1.64670000
H       -0.17550000       0.79540000       2.16260000
H       -0.11940000       3.80770000       1.56240000
H        0.44770000       3.00620000       3.03680000
H        2.27430000       3.60800000       1.14040000
H        3.40460000       0.70010000       0.28150000
H        2.02940000      -0.18870000       0.99200000
H        1.79070000       2.12740000      -0.94100000
