20
Properties=species:S:1:pos:R:3 gdb_17376=T pbc="F F F"
C       -0.01480000       1.44780000      -0.16740000
C        0.08250000      -0.05930000       0.10390000
C        0.74190000      -0.35710000       1.45700000
C       -1.29910000      -0.69630000       0.04610000
O       -1.98650000      -0.51280000      -1.23250000
C       -2.27750000      -1.91060000      -1.28820000
C       -1.02490000      -2.71640000      -1.40440000
C       -1.47850000      -2.21510000      -0.04480000
H        0.97880000       1.90730000      -0.18210000
H       -0.49850000       1.63790000      -1.12890000
H       -0.60200000       1.94890000       0.61170000
H        0.69290000      -0.51180000      -0.68770000
H        1.74350000       0.08130000       1.50560000
H        0.15650000       0.06550000       2.28250000
H        0.83880000      -1.43390000       1.62970000
H       -1.93310000      -0.28010000       0.84290000
H       -3.26400000      -2.21210000      -1.62040000
H       -1.16700000      -3.78320000      -1.54930000
H       -0.15910000      -2.29610000      -1.90700000
H       -1.69290000      -2.87600000       0.78360000
