19
Properties=species:S:1:pos:R:3 gdb_75637=T pbc="F F F"
C       -0.07980000       1.62600000       0.03390000
C        0.05780000       0.10860000       0.02600000
C        1.08940000      -0.58210000      -0.91540000
O        1.17300000      -0.66590000      -2.10880000
C        1.76500000      -1.27830000       0.23190000
O        2.26270000      -2.56090000       0.24090000
C        2.16310000      -0.24600000       1.28450000
C        0.72330000      -0.64660000       1.19940000
C       -0.01870000      -1.32490000       2.31290000
H        0.85840000       2.12320000       0.29830000
H       -0.37420000       1.97960000      -0.95910000
H       -0.84360000       1.95260000       0.74710000
H       -0.91380000      -0.35100000      -0.20210000
H        3.20500000      -2.53220000       0.04190000
H        2.71590000      -0.69880000       2.10320000
H        2.50810000       0.74600000       1.00840000
H       -0.39120000      -0.59770000       3.04350000
H       -0.87920000      -1.88380000       1.92960000
H        0.63120000      -2.02830000       2.84250000
