22
Properties=species:S:1:pos:R:3 gdb_110926=T pbc="F F F"
C       -0.69650000       1.46430000      -0.18090000
C       -0.37540000       0.06870000      -0.73240000
C       -1.56510000      -0.86210000      -0.61740000
C       -1.61180000      -2.34150000      -0.58980000
C       -0.49950000      -3.03490000       0.19560000
C        0.89280000      -3.18730000      -0.38990000
O        1.67490000      -3.88420000       0.57190000
C       -0.81680000      -2.04790000       1.34720000
N       -2.03160000      -1.50640000       0.62850000
H        0.15770000       2.13910000      -0.29120000
H       -1.54690000       1.91000000      -0.70800000
H       -0.95720000       1.41560000       0.88100000
H       -0.10350000       0.14280000      -1.79330000
H        0.50390000      -0.33010000      -0.22260000
H       -2.43610000      -0.44770000      -1.12840000
H       -2.35140000      -2.88060000      -1.17650000
H       -0.83380000      -4.03570000       0.48500000
H        0.82440000      -3.74960000      -1.33650000
H        1.33820000      -2.21090000      -0.62580000
H        2.57090000      -3.96390000       0.23240000
H       -1.12730000      -2.53200000       2.27390000
H       -0.05610000      -1.29900000       1.58700000
