21
Properties=species:S:1:pos:R:3 gdb_94941=T pbc="F F F"
C        0.08970000       1.56940000      -0.00560000
C        0.01250000       0.04130000       0.00910000
C        0.77840000      -0.62130000      -1.16140000
O        1.26520000      -1.87630000      -0.67800000
C        1.52470000      -1.73770000       0.69680000
C        0.70020000      -0.58720000       1.22580000
C        0.37250000      -2.00600000       1.64140000
C       -0.86550000      -2.74720000       1.20110000
O        0.74690000      -2.22730000       2.98010000
H        1.12820000       1.91030000       0.07230000
H       -0.32790000       1.97750000      -0.93210000
H       -0.47050000       2.00070000       0.82960000
H       -1.04180000      -0.25520000      -0.03330000
H        0.15760000      -0.82080000      -2.03970000
H        1.62170000       0.01780000      -1.46980000
H        2.54670000      -1.93570000       1.00860000
H        1.08600000       0.05880000       2.00610000
H       -1.03600000      -2.64380000       0.12850000
H       -0.74990000      -3.81820000       1.40880000
H       -1.74870000      -2.39410000       1.74320000
H        0.99250000      -3.15590000       3.06480000
