25
Properties=species:S:1:pos:R:3 gdb_122967=T pbc="F F F"
C       -0.34110000       1.74070000       0.51660000
C       -0.50880000       0.26320000       0.87890000
C        0.82290000      -0.47010000       0.96240000
O        0.58040000      -1.82030000       1.29630000
C        1.75370000      -2.59500000       1.39080000
C        1.36190000      -4.03330000       1.72650000
C        0.48370000      -4.65670000       0.64160000
O        2.59370000      -4.71780000       1.90220000
C        2.49160000      -5.95370000       2.56810000
H        0.15020000       1.86060000      -0.45530000
H       -1.31050000       2.24440000       0.46190000
H        0.26530000       2.26860000       1.26100000
H       -1.02220000       0.16310000       1.84210000
H       -1.13720000      -0.24180000       0.13620000
H        1.35810000      -0.40510000      -0.00130000
H        1.47340000       0.00010000       1.72070000
H        2.31620000      -2.57980000       0.44190000
H        2.42210000      -2.21090000       2.17710000
H        0.80750000      -4.01940000       2.68000000
H        1.04520000      -4.73690000      -0.29540000
H        0.13650000      -5.65490000       0.92270000
H       -0.39100000      -4.02430000       0.47270000
H        3.50960000      -6.32010000       2.72380000
H        2.00030000      -5.84790000       3.54850000
H        1.93800000      -6.70490000       1.98640000
