19
Properties=species:S:1:pos:R:3 gdb_6485=T pbc="F F F"
C        0.36580000       1.00750000      -1.18280000
C       -0.85920000       0.11940000      -1.05010000
O       -1.82430000       0.45560000      -0.40420000
C       -0.82180000      -1.23090000      -1.77310000
C        0.21960000      -2.19110000      -1.20630000
C        0.04730000      -2.53740000       0.25920000
C        0.81310000      -3.19840000      -2.12250000
N        1.62620000      -2.06170000      -1.64360000
H        1.25630000       0.49060000      -0.80920000
H        0.55150000       1.24310000      -2.23750000
H        0.21250000       1.93190000      -0.62490000
H       -1.82210000      -1.66590000      -1.68630000
H       -0.61450000      -1.06010000      -2.83770000
H       -0.91300000      -3.03610000       0.42890000
H        0.85080000      -3.19980000       0.58860000
H        0.06970000      -1.64070000       0.88770000
H        1.11270000      -4.16890000      -1.73620000
H        0.49140000      -3.20710000      -3.16090000
H        1.70430000      -1.37020000      -2.38570000
