15
Properties=species:S:1:pos:R:3 gdb_81759=T pbc="F F F"
N        0.05690000       1.45090000       0.06820000
C        0.08910000       0.00840000       0.02980000
C        0.25920000      -0.63050000       1.47160000
O        0.51110000       0.26520000       2.49930000
C       -1.15290000      -1.22880000       1.33860000
O       -2.06450000      -0.17840000       1.00440000
C       -1.27160000      -0.72950000      -0.05610000
C       -1.92550000      -1.27830000      -1.20140000
N       -2.39820000      -1.71090000      -2.16440000
H        0.30990000       1.87350000      -0.81600000
H       -0.86510000       1.77780000       0.34030000
H        0.83460000      -0.34700000      -0.68150000
H        1.00290000      -1.43820000       1.45630000
H        0.57980000       1.13510000       2.07030000
H       -1.57860000      -2.12200000       1.78040000
