16
Properties=species:S:1:pos:R:3 gdb_77152=T pbc="F F F"
N        0.57770000       1.22110000       0.30930000
C        0.35920000      -0.13020000      -0.14030000
C       -1.06050000      -0.74230000       0.01950000
O       -1.05210000      -1.12470000      -1.39140000
C        0.14540000      -0.46570000      -1.61330000
N        0.75290000      -0.20780000      -2.67670000
C       -1.15710000      -1.97200000       0.92000000
N       -2.25540000      -2.01310000       1.72190000
O       -0.29390000      -2.82600000       0.91760000
H        1.57070000       1.42320000       0.34090000
H        0.16830000       1.88690000      -0.33910000
H        1.09550000      -0.80300000       0.30530000
H       -1.84360000      -0.00010000       0.20470000
H        0.26590000      -0.57880000      -3.49430000
H       -2.99740000      -1.33930000       1.65290000
H       -2.38360000      -2.81490000       2.31820000
