18
Properties=species:S:1:pos:R:3 gdb_85022=T pbc="F F F"
C       -0.29000000       1.62070000       0.06710000
C        0.08130000       0.14780000      -0.01460000
O        0.94270000      -0.10970000      -1.13620000
C        2.09230000      -0.76750000      -0.77690000
N        3.04280000      -1.01670000      -1.56620000
C        2.04930000      -1.14720000       0.68620000
C        3.35180000      -0.94990000       1.46110000
C        0.86140000      -0.35160000       1.20680000
O        0.57480000      -0.12670000       2.35230000
H        0.60810000       2.24090000       0.13700000
H       -0.85740000       1.92440000      -0.81550000
H       -0.89810000       1.78670000       0.96000000
H       -0.82340000      -0.46590000      -0.12830000
H        2.84060000      -0.65800000      -2.50120000
H        1.75200000      -2.20590000       0.74280000
H        3.68010000       0.09170000       1.40980000
H        3.20310000      -1.21290000       2.51090000
H        4.13800000      -1.57420000       1.03330000
