19
Properties=species:S:1:pos:R:3 gdb_59619=T pbc="F F F"
C       -0.13720000       1.55290000       0.04490000
C        0.02510000       0.03410000      -0.03010000
O        0.65610000      -0.37110000      -1.23500000
C        0.77850000      -0.53450000       1.17910000
C        0.90080000      -2.06760000       1.20190000
C        2.28410000      -2.28850000       1.81790000
C        3.04010000      -1.01250000       1.46980000
O        4.21700000      -0.80550000       1.48690000
O        2.13990000      -0.04770000       1.11370000
H        0.84030000       2.04110000       0.11170000
H       -0.64970000       1.91600000      -0.84920000
H       -0.72140000       1.84460000       0.92410000
H       -0.96500000      -0.43870000      -0.04800000
H        1.54880000      -0.00450000      -1.21540000
H        0.33380000      -0.15330000       2.10750000
H        0.08780000      -2.53310000       1.76220000
H        0.87320000      -2.43550000       0.17280000
H        2.24630000      -2.36600000       2.91090000
H        2.82520000      -3.15970000       1.44680000
