16
Properties=species:S:1:pos:R:3 gdb_68730=T pbc="F F F"
N        0.22650000       1.44260000      -0.12610000
C        0.10650000       0.04740000      -0.06870000
C       -0.26500000      -0.72210000       1.14760000
C       -1.18490000      -0.94030000      -0.04980000
C       -2.54970000      -0.55550000      -0.03930000
N       -3.65870000      -0.21760000      -0.02580000
C       -0.48890000      -1.76380000      -1.10100000
N       -0.22810000      -0.89290000      -2.27260000
C        0.69820000      -0.86470000      -1.11110000
H       -0.27620000       1.92160000       0.61080000
H       -0.07470000       1.80260000      -1.02580000
H        0.34530000      -1.54940000       1.50200000
H       -0.70890000      -0.13580000       1.94810000
H       -0.50310000      -2.84270000      -1.19620000
H        0.20470000      -1.47290000      -2.99370000
H        1.74480000      -1.12220000      -1.22270000
