18
Properties=species:S:1:pos:R:3 gdb_39919=T pbc="F F F"
C       -0.04590000       1.50960000      -0.02260000
N        1.24010000       0.79850000       0.05180000
C       -0.01890000       0.02300000      -0.00160000
C       -0.38200000      -0.75830000       1.21700000
C       -0.97860000      -1.93940000       1.04380000
C       -1.21890000      -2.35850000      -0.39370000
C        0.09970000      -2.21500000      -1.19650000
C       -0.37980000      -0.74690000      -1.26510000
O       -1.75290000      -1.20910000      -1.13140000
H       -0.31620000       2.05860000       0.87520000
H       -0.33080000       1.99480000      -0.95340000
H        1.68740000       0.78960000      -0.86350000
H       -0.14270000      -0.33970000       2.18910000
H       -1.26790000      -2.58510000       1.86540000
H       -1.83810000      -3.24920000      -0.51130000
H        1.04070000      -2.44660000      -0.69570000
H        0.03970000      -2.69480000      -2.17460000
H       -0.21260000      -0.16380000      -2.17700000
