16
Properties=species:S:1:pos:R:3 gdb_52930=T pbc="F F F"
C       -0.05130000       1.45840000       0.02580000
C       -0.00480000       0.00550000       0.02070000
C        0.03200000      -1.19910000       0.00850000
C        0.10210000      -2.62060000      -0.02330000
C        0.62790000      -3.61730000       1.07330000
C        0.03410000      -4.52740000      -0.04250000
N       -1.12140000      -3.54530000      -0.22110000
C        0.78220000      -3.60990000      -1.02710000
O        1.50150000      -3.62690000      -1.96650000
H        0.65750000       1.87840000      -0.69610000
H       -1.05080000       1.81860000      -0.24100000
H        0.19670000       1.86190000       1.01350000
H        1.70050000      -3.64920000       1.28710000
H        0.02620000      -3.59830000       1.98630000
H       -0.11310000      -5.60400000      -0.04720000
H       -1.64430000      -3.52800000       0.66200000
