15
Properties=species:S:1:pos:R:3 gdb_24449=T pbc="F F F"
C       -0.01970000       1.39900000       0.08230000
C        1.43190000       1.92490000       0.00190000
O        2.24470000       1.44850000       1.08060000
C        2.00190000       0.13430000       1.29560000
C        0.97450000      -0.56840000       0.75840000
N       -0.10410000      -0.07190000       0.03350000
O        1.05080000      -1.84570000       1.24850000
C        2.15350000      -1.81740000       2.04390000
N        2.75220000      -0.66930000       2.12100000
H       -0.46620000       1.73620000       1.02420000
H       -0.60470000       1.81970000      -0.73920000
H        1.88230000       1.61360000      -0.95150000
H        1.45350000       3.01530000       0.06340000
H       -0.14950000      -0.42310000      -0.91840000
H        2.43490000      -2.74760000       2.50960000
