14
Properties=species:S:1:pos:R:3 gdb_44499=T pbc="F F F"
N       -0.07140000       1.24810000       0.47890000
C       -0.00810000       0.08880000      -0.00410000
O        1.16230000      -0.55600000      -0.29420000
C        1.08610000      -1.85930000      -0.83440000
C        0.01310000      -2.13940000      -1.91750000
O        0.03870000      -3.55480000      -1.51920000
C        0.04510000      -2.83880000      -0.23470000
C       -1.03940000      -1.88850000      -0.80610000
O       -1.15100000      -0.59180000      -0.26510000
H        0.86660000       1.61830000       0.61490000
H        2.09560000      -2.22730000      -1.00660000
H       -0.00390000      -1.89560000      -2.97810000
H        0.06580000      -3.41850000       0.68620000
H       -2.03970000      -2.28980000      -0.95390000
