15
Properties=species:S:1:pos:R:3 gdb_30088=T pbc="F F F"
C       -0.01620000       1.45490000       0.00700000
N       -0.02970000      -0.00330000      -0.00440000
C       -0.12850000      -0.67650000      -1.22240000
C       -0.14440000      -2.00550000      -1.28090000
O       -0.06560000      -2.78720000      -0.16180000
C        0.03450000      -2.20630000       1.08360000
N        0.10840000      -2.90540000       2.13090000
C        0.05610000      -0.68770000       1.19280000
O        0.14280000      -0.13750000       2.26750000
H        0.83840000       1.83350000      -0.56310000
H       -0.93940000       1.84880000      -0.43030000
H        0.06400000       1.77670000       1.04360000
H       -0.19130000      -0.06580000      -2.11140000
H       -0.21870000      -2.58290000      -2.18940000
H        0.08170000      -3.89940000       1.89460000
