20
Properties=species:S:1:pos:R:3 gdb_90892=T pbc="F F F"
C       -0.09040000       1.58820000      -0.00600000
C        0.03770000       0.06600000      -0.00430000
C        0.85370000      -0.53260000      -1.18080000
C        1.51390000      -1.77210000      -0.58370000
C        1.09730000      -1.98430000       0.81590000
N        2.52350000      -1.61620000       0.51030000
C        2.28870000      -0.27860000       1.15550000
C        0.75510000      -0.53140000       1.22330000
O        0.10110000      -0.38240000       2.45100000
H        0.88930000       2.07760000       0.02900000
H       -0.60210000       1.93890000      -0.90780000
H       -0.67690000       1.94290000       0.85020000
H       -0.96840000      -0.37400000      -0.01540000
H        0.21320000      -0.80380000      -2.02520000
H        1.59830000       0.17590000      -1.56360000
H        1.75110000      -2.61380000      -1.22540000
H        0.80530000      -2.90350000       1.30890000
H        2.73930000      -0.29560000       2.15050000
H        2.66810000       0.58370000       0.59520000
H       -0.03100000       0.55760000       2.61460000
