25
Properties=species:S:1:pos:R:3 gdb_104684=T pbc="F F F"
C        0.89140000      -0.07340000      -1.23680000
C       -0.05500000      -0.12270000      -0.02920000
C        0.58260000      -0.70610000       1.22600000
C        1.72370000       0.11940000       1.82440000
C        1.31500000       1.51680000       2.30870000
C       -0.21240000      -1.43850000       2.28460000
C       -1.36670000      -2.27030000       1.71140000
C       -0.34900000      -3.03100000       0.80070000
C        0.79150000      -2.19380000       1.39830000
H        1.28140000      -1.07000000      -1.46930000
H        0.37180000       0.30000000      -2.12490000
H        1.74890000       0.58340000      -1.05940000
H       -0.42610000       0.88700000       0.18610000
H       -0.93940000      -0.70370000      -0.30400000
H        2.14740000      -0.43880000       2.66820000
H        2.53510000       0.21220000       1.09180000
H        2.16020000       2.02420000       2.78450000
H        0.97520000       2.15180000       1.48470000
H        0.50220000       1.46030000       3.04040000
H       -0.11670000      -1.16550000       3.33020000
H       -1.81160000      -2.92960000       2.46030000
H       -2.17580000      -1.72210000       1.21790000
H       -0.27350000      -4.08770000       1.06660000
H       -0.49550000      -2.96210000      -0.28220000
H        1.76560000      -2.58900000       1.66590000
