18
Properties=species:S:1:pos:R:3 gdb_5120=T pbc="F F F"
C        0.01590000       1.44090000       0.01440000
N        0.02060000      -0.00390000       0.02170000
C       -0.01070000      -0.80070000      -1.09340000
C       -0.00990000      -2.11560000      -0.68920000
C        0.01060000      -2.11570000       0.73430000
N       -0.01990000      -3.23950000       1.60370000
C        0.01750000      -0.79870000       1.15550000
C        0.00890000      -0.25070000       2.54200000
H        0.87180000       1.84370000       0.56700000
H        0.07820000       1.79000000      -1.01800000
H       -0.90050000       1.84590000       0.45970000
H       -0.02370000      -0.36240000      -2.07890000
H       -0.01720000      -2.98140000      -1.33480000
H       -0.17030000      -4.09310000       1.07950000
H        0.85100000      -3.35020000       2.11240000
H        0.96950000       0.18850000       2.84620000
H       -0.75570000       0.52390000       2.68080000
H       -0.21730000      -1.06460000       3.23630000
