20
Properties=species:S:1:pos:R:3 gdb_22378=T pbc="F F F"
C       -0.00240000       1.58450000       0.03210000
C        0.10650000       0.07490000       0.09310000
C        1.36800000      -0.71500000      -0.23330000
C        2.55750000      -0.04680000       0.35120000
C        1.97560000      -0.01080000       1.75840000
C        0.73090000      -0.73280000       1.19140000
C        0.03320000      -1.85730000       1.89990000
N        3.68800000       0.20360000      -0.16540000
O        4.55990000       0.76430000       0.79480000
H        0.90680000       2.08030000       0.38010000
H       -0.17900000       1.91300000      -0.99750000
H       -0.83810000       1.94190000       0.64400000
H       -0.76840000      -0.43040000      -0.31530000
H        1.38420000      -1.47540000      -1.00470000
H        2.56230000      -0.64080000       2.43440000
H        1.83000000       0.96460000       2.23120000
H       -0.53340000      -1.48820000       2.76380000
H       -0.67350000      -2.36640000       1.23650000
H        0.74720000      -2.60270000       2.26820000
H        5.36780000       0.88200000       0.28460000
