15
Properties=species:S:1:pos:R:3 gdb_32311=T pbc="F F F"
C       -0.09240000       1.35970000       0.03290000
O       -0.05310000      -0.06820000       0.09490000
C        0.65250000      -0.59890000       1.08900000
N        1.27060000       0.12390000       1.95410000
C        1.97580000      -0.54130000       2.94810000
C        2.01890000      -1.87640000       3.01500000
O        1.36860000      -2.65780000       2.10500000
C        0.64340000      -2.08330000       1.08340000
N        0.02750000      -2.77380000       0.22110000
H        0.91440000       1.76970000      -0.08570000
H       -0.70890000       1.59440000      -0.83460000
H       -0.53240000       1.77460000       0.94390000
H        2.49470000       0.07090000       3.67440000
H        2.54390000      -2.46340000       3.75550000
H        0.15520000      -3.77040000       0.40530000
