15
Properties=species:S:1:pos:R:3 gdb_44032=T pbc="F F F"
O        0.01540000       0.05130000      -0.38030000
C       -0.00410000       1.20260000      -0.08820000
C       -1.12710000       2.20720000       0.36680000
C       -0.00300000       3.13920000       0.86830000
N        0.71560000       2.85990000       2.15620000
C        1.82740000       3.09590000       1.18620000
C        1.04890000       4.15660000       0.29250000
N        1.32470000       3.39790000      -0.97010000
C        1.06670000       2.33550000       0.06570000
H       -1.70570000       2.58580000      -0.48140000
H       -1.81640000       1.83330000       1.12610000
H        0.62010000       3.64370000       2.80520000
H        2.88630000       3.08390000       1.45500000
H        1.08040000       5.24970000       0.34450000
H        0.52560000       3.47960000      -1.60660000
