23
Properties=species:S:1:pos:R:3 gdb_100919=T pbc="F F F"
C        0.01460000       1.57040000       0.09350000
C        0.01780000       0.04140000       0.16030000
C       -1.38410000      -0.55610000      -0.04600000
O       -1.95260000      -0.16850000      -1.28780000
C       -1.41720000      -2.09390000       0.13120000
C       -2.87800000      -2.62020000       0.13750000
C       -3.03250000      -4.12770000       0.36260000
C       -0.62260000      -2.81640000      -0.93760000
O       -0.39960000      -2.38330000      -2.04710000
H        1.02680000       1.97360000       0.19190000
H       -0.40310000       1.90840000      -0.85810000
H       -0.59630000       1.99950000       0.89590000
H        0.69610000      -0.36130000      -0.60180000
H        0.40440000      -0.29140000       1.13290000
H       -2.04900000      -0.13020000       0.71850000
H       -1.44160000      -0.63330000      -1.96620000
H       -0.96210000      -2.35540000       1.09740000
H       -3.40790000      -2.07880000       0.93000000
H       -3.34640000      -2.32050000      -0.80490000
H       -4.09070000      -4.39350000       0.44390000
H       -2.61370000      -4.71620000      -0.46020000
H       -2.53920000      -4.44970000       1.28670000
H       -0.24820000      -3.82540000      -0.65940000
