19
Properties=species:S:1:pos:R:3 gdb_7648=T pbc="F F F"
C       -0.70660000       1.14140000      -0.24560000
C        0.24030000      -0.00790000       0.05770000
C        1.57180000      -0.10960000      -0.73810000
C        2.31980000      -0.47360000       0.57970000
C        1.07020000       0.03960000       1.37110000
C        2.52460000      -1.96890000       0.74620000
N        3.70660000      -2.33430000       1.32450000
O        1.69220000      -2.79150000       0.40580000
H       -0.18830000       2.10640000      -0.18950000
H       -1.13220000       1.05060000      -1.25140000
H       -1.54050000       1.16980000       0.46510000
H       -0.28350000      -0.96490000      -0.00270000
H        1.61570000      -0.85140000      -1.53730000
H        1.89810000       0.86110000      -1.12410000
H        3.24810000       0.07290000       0.76750000
H        1.22370000       1.06390000       1.72500000
H        0.72780000      -0.57590000       2.20620000
H        4.38970000      -1.66420000       1.62820000
H        3.87190000      -3.31240000       1.49750000
