19
Properties=species:S:1:pos:R:3 gdb_47104=T pbc="F F F"
O        0.11250000       0.16460000       0.49900000
C        0.03840000       1.31250000       0.11880000
N       -1.08640000       2.11800000       0.14100000
C       -0.85600000       3.40900000      -0.47850000
C        0.68410000       3.49110000      -0.44820000
C        1.34890000       4.09880000       0.79940000
C        2.69920000       3.35310000       0.85780000
C        2.41260000       1.95590000       0.22990000
N        1.08990000       2.08140000      -0.39450000
H       -1.99170000       1.67910000       0.16210000
H       -1.22700000       3.45140000      -1.51170000
H       -1.32250000       4.22430000       0.08500000
H        1.06830000       3.97380000      -1.35390000
H        1.46260000       5.18460000       0.74260000
H        0.74020000       3.86600000       1.68070000
H        3.45030000       3.88530000       0.26520000
H        3.08860000       3.27300000       1.87510000
H        3.17100000       1.69230000      -0.51360000
H        2.37050000       1.14740000       0.96410000
