15
Properties=species:S:1:pos:R:3 gdb_75703=T pbc="F F F"
C        0.09870000       1.45210000       0.00440000
N        0.01880000       0.00260000      -0.00060000
C       -0.00630000      -0.75050000      -1.17620000
O       -0.04670000      -0.29230000      -2.29000000
C        0.00230000      -2.20120000      -0.75480000
N        1.22600000      -2.51050000       0.02580000
C       -0.04800000      -2.20930000       0.72480000
C       -0.08610000      -0.76440000       1.16370000
O       -0.20310000      -0.32680000       2.28030000
H        1.10150000       1.78610000      -0.27740000
H       -0.61930000       1.86140000      -0.70910000
H       -0.13120000       1.79200000       1.01450000
H       -0.45510000      -2.94520000      -1.39340000
H        1.35760000      -3.52160000       0.02530000
H       -0.54640000      -2.96020000       1.32330000
