23
Properties=species:S:1:pos:R:3 gdb_96039=T pbc="F F F"
C       -0.60070000       1.40990000      -0.04330000
C       -0.01940000      -0.00230000      -0.01620000
C        1.04350000      -0.28040000      -1.10270000
C        1.87400000      -1.48650000      -0.58450000
C        1.37440000      -1.75580000       0.86090000
C        0.66730000      -0.45450000       1.29820000
C        1.66230000       0.58080000       1.87240000
C        2.19740000       0.13090000       3.21030000
O        3.35400000      -0.09510000       3.45950000
H        0.18090000       2.17280000       0.03890000
H       -1.13100000       1.59110000      -0.98410000
H       -1.31500000       1.56890000       0.77240000
H       -0.84770000      -0.70790000      -0.17280000
H        0.58310000      -0.47220000      -2.07620000
H        1.68190000       0.60130000      -1.23090000
H        1.74700000      -2.37150000      -1.21360000
H        2.94250000      -1.25370000      -0.59290000
H        0.64560000      -2.57350000       0.85980000
H        2.18310000      -2.04990000       1.53580000
H       -0.08770000      -0.65570000       2.06870000
H        2.50760000       0.75650000       1.20060000
H        1.14380000       1.53530000       2.03450000
H        1.41060000       0.00070000       3.99210000
