14
Properties=species:S:1:pos:R:3 gdb_81909=T pbc="F F F"
O        0.02780000       1.44540000       0.21300000
C       -0.01890000       0.04850000       0.04750000
C       -1.42900000      -0.50130000      -0.04510000
C       -2.26510000      -0.11460000      -1.19590000
N       -1.56080000      -1.43240000      -1.20970000
C       -0.35250000      -1.38960000      -1.96280000
O       -0.13640000      -1.99110000      -2.97320000
C        0.61690000      -0.39100000      -1.27170000
O        1.62790000       0.05500000      -1.73950000
H        0.89210000       1.73270000      -0.11280000
H        0.51300000      -0.47430000       0.86200000
H       -1.90560000      -0.85850000       0.86110000
H       -3.34450000      -0.19830000      -1.13920000
H       -1.89880000       0.66530000      -1.85860000
