12
Properties=species:S:1:pos:R:3 gdb_23713=T pbc="F F F"
N       -0.01550000       1.34510000       0.14530000
C        0.00260000      -0.01870000       0.05390000
N       -1.18880000      -0.64150000       0.03570000
C       -1.15840000      -1.97020000       0.00120000
C        0.03820000      -2.67030000      -0.01860000
F        0.05620000      -4.00660000      -0.05340000
C        1.21540000      -1.93790000      -0.01240000
N        1.21010000      -0.60890000       0.02200000
H        0.83780000       1.82350000      -0.08980000
H       -0.88400000       1.80010000      -0.08000000
H       -2.10810000      -2.49980000      -0.01510000
H        2.17900000      -2.44150000      -0.03960000
