18
Properties=species:S:1:pos:R:3 gdb_41536=T pbc="F F F"
C        0.06040000       1.50050000      -0.15300000
O        1.33290000       1.49990000       0.56350000
C        1.25140000       0.14280000       0.78180000
N        2.01470000      -0.53140000       1.50340000
C        1.72460000      -1.93910000       1.73030000
C        0.44800000      -2.51940000       1.09670000
O       -0.71040000      -1.79470000       1.49050000
C       -1.15520000      -0.78910000       0.59430000
C        0.00300000      -0.04010000      -0.07590000
H       -0.70670000       2.02910000       0.42120000
H        0.16500000       1.94250000      -1.14600000
H        2.58520000      -2.53840000       1.40180000
H        1.65700000      -2.07780000       2.81680000
H        0.53480000      -2.57480000       0.00310000
H        0.31790000      -3.54630000       1.45770000
H       -1.81840000      -1.22060000      -0.17110000
H       -1.75420000      -0.10130000       1.20080000
H        0.25890000      -0.48860000      -1.03910000
