18
Properties=species:S:1:pos:R:3 gdb_114330=T pbc="F F F"
O        0.04630000       1.41730000      -0.21720000
C        0.07140000       0.06830000       0.22640000
C       -1.29240000      -0.58250000       0.05110000
N       -1.76540000      -0.67020000      -1.38350000
C       -2.18270000      -2.07800000      -1.16040000
C       -0.92190000      -2.86010000      -0.97670000
O        0.24800000      -2.54740000      -1.66530000
C       -1.48190000      -2.09700000       0.20830000
O       -1.86390000      -2.69400000       1.39370000
H       -0.14790000       1.38670000      -1.16090000
H        0.83810000      -0.51860000      -0.29540000
H        0.33290000       0.09510000       1.29000000
H       -2.03400000      -0.05700000       0.66310000
H       -2.56730000      -0.06960000      -1.53810000
H       -3.12560000      -2.46870000      -1.52360000
H       -1.07040000      -3.93320000      -0.87840000
H        0.04770000      -1.72900000      -2.14410000
H       -1.10930000      -3.17410000       1.75210000
