21
Properties=species:S:1:pos:R:3 gdb_82485=T pbc="F F F"
C       -0.15450000       1.59180000      -0.00670000
C        0.06440000       0.08630000       0.01960000
C        1.08460000      -0.59450000      -0.93470000
C        2.51090000       0.01860000      -0.90190000
C        2.78190000      -0.69570000       0.44600000
O        4.02810000      -1.30120000       0.64020000
C        2.10610000       0.00440000       1.65170000
C        0.74060000      -0.60650000       1.23510000
C        1.49270000      -1.56070000       0.23680000
H        0.77670000       2.14670000       0.14400000
H       -0.57540000       1.91020000      -0.96730000
H       -0.85240000       1.90040000       0.78000000
H       -0.89770000      -0.41810000      -0.13570000
H        0.71570000      -0.92340000      -1.90680000
H        3.13340000      -0.43900000      -1.67660000
H        2.62010000       1.10750000      -0.95160000
H        4.68700000      -0.60550000       0.74800000
H        2.45940000      -0.46270000       2.57590000
H        2.19280000       1.09250000       1.74450000
H        0.08980000      -0.94530000       2.04190000
H        1.45790000      -2.64650000       0.22530000
