25
Properties=species:S:1:pos:R:3 gdb_106370=T pbc="F F F"
C       -0.20310000       1.55290000       0.02320000
C        0.04390000       0.03950000      -0.02290000
C        0.75550000      -0.51360000       1.19670000
C        0.11960000      -0.48710000       2.62620000
C        1.15200000      -1.61640000       2.89590000
C        0.90280000      -2.05020000       1.42470000
C        2.48800000      -0.84220000       2.80940000
C        3.74900000      -1.70360000       2.77320000
C        2.19550000      -0.03240000       1.49940000
H        0.73530000       2.11460000       0.06680000
H       -0.74750000       1.88810000      -0.86510000
H       -0.79700000       1.83040000       0.90080000
H       -0.91770000      -0.47810000      -0.13590000
H        0.62810000      -0.20790000      -0.92040000
H        0.20040000       0.43230000       3.21560000
H       -0.91370000      -0.84480000       2.62690000
H        1.03740000      -2.31290000       3.72820000
H       -0.04690000      -2.57770000       1.30050000
H        1.69390000      -2.58140000       0.88660000
H        2.56450000      -0.15910000       3.66390000
H        3.72920000      -2.42060000       1.94560000
H        4.64360000      -1.08370000       2.64830000
H        3.86660000      -2.27170000       3.70290000
H        2.88680000      -0.29220000       0.68940000
H        2.25570000       1.04880000       1.65370000
