15
Properties=species:S:1:pos:R:3 gdb_29988=T pbc="F F F"
C        0.00050000       1.45150000       0.02990000
N       -0.02690000       0.00490000       0.03760000
C       -0.13990000      -0.83380000      -1.05370000
N       -0.13910000      -2.12760000      -0.76170000
C       -0.01840000      -2.11050000       0.59430000
C        0.05300000      -0.84240000       1.12190000
N        0.17370000      -0.82100000       2.47980000
C        0.17550000      -2.11040000       2.78220000
N        0.06200000      -2.94550000       1.68760000
H        0.93740000       1.82380000       0.45520000
H       -0.08450000       1.80270000      -1.00030000
H       -0.83150000       1.85810000       0.61280000
H       -0.22060000      -0.42830000      -2.05160000
H        0.25640000      -2.50770000       3.78260000
H        0.04550000      -3.95060000       1.70560000
