17
Properties=species:S:1:pos:R:3 gdb_133841=T pbc="F F F"
C        1.46170000      -0.11960000       0.27340000
C        2.94480000      -0.01940000       0.06880000
C        4.03010000      -0.49520000       1.04900000
C        3.97000000      -1.00760000      -0.37970000
C        4.73990000       0.06870000      -1.14290000
C        5.71090000       0.60390000      -0.29700000
C        5.06750000       0.62820000       1.08640000
O        4.33670000       1.82270000       0.66260000
C        3.69500000       1.17140000      -0.56820000
H        1.20510000      -1.06230000       0.76770000
H        0.92350000      -0.08880000      -0.68030000
H        1.09040000       0.69920000       0.89970000
H        3.75560000      -1.06290000       1.92970000
H        3.82210000      -2.03780000      -0.67760000
H        6.31950000       1.47220000      -0.54750000
H        5.62440000       0.83790000       1.99560000
H        3.22120000       1.96100000      -1.14600000
