20
Properties=species:S:1:pos:R:3 gdb_59306=T pbc="F F F"
C        0.16670000       1.43970000       0.15940000
C       -0.11010000      -0.05960000      -0.01280000
C       -1.61670000      -0.34400000      -0.08860000
C        0.58850000      -0.60650000      -1.25850000
N        2.06280000      -0.51010000      -1.27310000
C        2.30450000      -1.85450000      -1.22290000
O        3.29490000      -2.52620000      -1.08770000
C        0.79140000      -2.16130000      -1.34080000
O        0.24590000      -2.92110000      -0.29300000
H        1.23670000       1.64770000       0.26640000
H       -0.20500000       2.01320000      -0.69850000
H       -0.33210000       1.82400000       1.05460000
H        0.29940000      -0.59560000       0.85120000
H       -2.06670000       0.14570000      -0.96080000
H       -1.81090000      -1.41700000      -0.15610000
H       -2.12520000       0.03850000       0.80190000
H        0.13580000      -0.17980000      -2.16270000
H        2.68940000       0.28030000      -1.22460000
H        0.51520000      -2.57120000      -2.32120000
H        0.92370000      -3.54710000      -0.01230000
