12
Properties=species:S:1:pos:R:3 gdb_2615=T pbc="F F F"
C        0.01970000      -1.17970000      -0.00450000
C        0.04010000       0.02030000       0.00180000
C        0.02810000       1.47380000       0.00970000
O        1.36390000       1.96270000      -0.00040000
C        1.40030000       3.36910000       0.00680000
C        2.79610000       3.81330000      -0.00410000
N        3.88400000       4.19890000      -0.01250000
H        0.01030000      -2.24190000      -0.01000000
H       -0.52120000       1.85090000      -0.86920000
H       -0.50430000       1.84140000       0.90290000
H        0.88930000       3.79380000      -0.87320000
H        0.90620000       3.78430000       0.90090000
