15
Properties=species:S:1:pos:R:3 gdb_29472=T pbc="F F F"
O        0.09170000       1.36000000      -0.08220000
C        0.05470000      -0.00420000      -0.01020000
C        0.03470000      -0.82990000      -1.10370000
N        0.07720000      -2.17560000      -0.67130000
C        0.02640000      -2.13600000       0.69390000
C        0.05230000      -0.82940000       1.16580000
C        0.08570000      -0.91730000       2.59690000
C        0.07180000      -2.25360000       2.91280000
N        0.04410000      -3.01220000       1.74140000
H        0.09590000       1.70650000       0.81370000
H        0.04390000      -0.58940000      -2.15290000
H       -0.25390000      -2.93500000      -1.24100000
H        0.11420000      -0.11330000       3.31640000
H        0.07140000      -2.74630000       3.87150000
H        0.01270000      -4.01440000       1.70050000
