20
Properties=species:S:1:pos:R:3 gdb_73136=T pbc="F F F"
O        0.35710000       1.41560000      -0.15390000
C        0.01570000       0.05620000       0.01950000
C       -1.38220000      -0.14120000       0.64570000
C       -0.78000000      -1.19670000       1.61770000
C        0.65630000      -0.75520000       1.20050000
C        1.64820000      -1.78210000       0.61220000
C        1.33120000      -1.83290000      -0.87710000
N       -0.07720000      -2.17810000      -1.15320000
C        0.34930000      -0.76490000      -1.22100000
H        1.26830000       1.45960000      -0.46540000
H       -1.69850000       0.77300000       1.15340000
H       -2.17520000      -0.47720000      -0.02490000
H       -1.02490000      -1.06970000       2.67460000
H       -1.00440000      -2.21890000       1.31320000
H        1.11740000      -0.10590000       1.94790000
H        2.68380000      -1.44940000       0.75090000
H        1.55630000      -2.76780000       1.08090000
H        2.09160000      -2.15950000      -1.58060000
H       -0.16020000      -2.54470000      -2.09810000
H        0.33950000      -0.25820000      -2.18190000
