18
Properties=species:S:1:pos:R:3 gdb_72970=T pbc="F F F"
C       -0.08270000       1.52730000       0.03190000
C        0.05050000       0.03920000       0.11030000
N       -1.11150000      -0.85440000      -0.09030000
C       -0.60800000      -1.74490000       1.01180000
C        0.67730000      -0.92730000       1.10180000
C        1.26820000      -0.77030000      -0.32160000
N        1.17520000      -1.72630000      -1.38630000
C        2.51020000      -0.02590000      -0.30890000
N        3.50450000       0.56490000      -0.27310000
H        0.88210000       2.01430000       0.19040000
H       -0.45410000       1.82450000      -0.95550000
H       -0.78480000       1.89770000       0.78710000
H       -1.97630000      -0.39200000       0.16870000
H       -1.20510000      -1.67000000       1.92460000
H       -0.52040000      -2.79780000       0.72240000
H        1.28470000      -0.76010000       1.98190000
H        1.57920000      -2.62010000      -1.12800000
H        0.19340000      -1.86070000      -1.61330000
