15
Properties=species:S:1:pos:R:3 gdb_44301=T pbc="F F F"
O       -0.03330000      -0.02850000       0.24300000
C       -0.05100000       1.14880000       0.00340000
N       -1.16770000       1.95750000      -0.16320000
C       -0.74710000       3.33960000      -0.06550000
C        0.00630000       3.72560000       1.23250000
C        1.25090000       4.12920000       0.45890000
C        1.24250000       2.81210000       1.15870000
N        1.11990000       2.01580000      -0.10760000
C        0.65290000       3.31230000      -0.72480000
H       -2.05330000       1.61820000       0.18130000
H       -1.47000000       4.06100000      -0.44180000
H       -0.38090000       4.11700000       2.16340000
H        1.91310000       4.97870000       0.51260000
H        1.78980000       2.45500000       2.01960000
H        0.80580000       3.43460000      -1.79460000
