15
Properties=species:S:1:pos:R:3 gdb_25502=T pbc="F F F"
O       -0.45860000       0.76100000       0.91610000
C        0.06990000       1.06100000      -0.12020000
C        1.40560000       1.79670000      -0.21180000
C        1.36650000       2.89220000      -1.24460000
N        1.21260000       2.50710000      -2.51950000
C        1.15650000       3.47550000      -3.43340000
N        1.24380000       4.78950000      -3.22420000
C        1.39320000       5.15830000      -1.94900000
C        1.45500000       4.24200000      -0.90720000
H       -0.37530000       0.81250000      -1.10640000
H        1.67600000       2.16400000       0.77990000
H        2.14590000       1.05010000      -0.52890000
H        1.02920000       3.15670000      -4.46540000
H        1.46590000       6.22650000      -1.75750000
H        1.57210000       4.56240000       0.12150000
