16
Properties=species:S:1:pos:R:3 gdb_84963=T pbc="F F F"
C        0.21720000       1.58350000      -0.01880000
C       -0.03970000       0.07810000       0.04320000
N        0.56350000      -0.65940000      -1.07390000
C        1.76710000      -1.26340000      -0.83370000
O        2.49420000      -1.82350000      -1.61840000
C        1.98200000      -1.04930000       0.67640000
O        3.01180000      -1.12120000       1.29250000
C        0.64990000      -0.60710000       1.25690000
O        0.78230000       0.18810000       2.39530000
H        1.29040000       1.79810000      -0.02340000
H       -0.22180000       2.00880000      -0.92640000
H       -0.22500000       2.07540000       0.85010000
H       -1.11790000      -0.11010000       0.05440000
H        0.20650000      -0.59600000      -2.01590000
H        0.08540000      -1.53120000       1.47710000
H        1.68450000       0.04680000       2.71920000
