14
Properties=species:S:1:pos:R:3 gdb_79672=T pbc="F F F"
O        0.10950000       1.41800000      -0.05900000
C       -0.03700000       0.05720000       0.04820000
C       -0.42310000      -0.75080000       1.25150000
C       -1.61410000      -0.16940000       2.05500000
O       -2.03050000       1.08370000       1.46520000
C       -2.47520000      -0.15040000       0.88110000
C       -1.34770000      -0.73800000      -0.02520000
C       -1.58240000      -1.78750000      -0.95120000
N       -1.78500000      -2.64160000      -1.70790000
H       -0.59480000       1.81570000       0.47140000
H        0.73300000      -0.44220000      -0.53550000
H        0.15560000      -1.59530000       1.60380000
H       -1.82570000      -0.31970000       3.10500000
H       -3.53860000      -0.29970000       0.74670000
