18
Properties=species:S:1:pos:R:3 gdb_19662=T pbc="F F F"
O        0.06500000       1.49150000      -0.05900000
C        0.01920000       0.08800000       0.03400000
C        0.13860000      -0.62930000       1.41470000
C       -0.92400000       0.12530000       2.23700000
C       -2.11340000      -0.33040000       1.36400000
C       -2.08240000      -1.86650000       1.58520000
C       -0.76910000      -1.77970000       0.79470000
C       -1.35340000      -0.56870000      -0.01470000
H        0.98520000       1.77060000      -0.01270000
H        0.68040000      -0.38430000      -0.70750000
H        1.10670000      -0.83830000       1.86990000
H       -1.01060000      -0.21740000       3.27180000
H       -0.75500000       1.20350000       2.22370000
H       -3.04010000       0.23900000       1.41360000
H       -2.07830000      -2.23880000       2.61520000
H       -2.84800000      -2.39220000       1.00650000
H       -0.27270000      -2.63090000       0.33120000
H       -1.94890000      -0.67440000      -0.92020000
