21
Properties=species:S:1:pos:R:3 gdb_53663=T pbc="F F F"
C       -0.14680000       1.44280000       0.02350000
C       -0.10240000      -0.00980000       0.10120000
C       -0.07310000      -1.21110000       0.16190000
C       -0.01500000      -2.66390000       0.24490000
O       -1.19250000      -3.22390000      -0.32780000
C       -1.33690000      -4.60490000      -0.11480000
C       -0.38030000      -5.48240000      -0.89380000
C       -1.82220000      -5.03150000       1.25140000
C       -2.76290000      -5.02730000       0.06040000
H        0.72120000       1.84180000      -0.51270000
H       -1.04530000       1.77820000      -0.50610000
H       -0.16130000       1.89740000       1.02020000
H        0.88360000      -3.02760000      -0.27760000
H        0.07940000      -2.97970000       1.29600000
H        0.65880000      -5.33880000      -0.57820000
H       -0.62330000      -6.53880000      -0.74860000
H       -0.44560000      -5.25840000      -1.96360000
H       -1.49010000      -5.98370000       1.65110000
H       -1.96700000      -4.25350000       1.99260000
H       -3.50670000      -4.24030000       0.02150000
H       -3.07500000      -5.97630000      -0.36150000
