16
Properties=species:S:1:pos:R:3 gdb_28095=T pbc="F F F"
N       -0.14770000       1.41080000       0.08430000
C       -0.09030000       0.01840000       0.04640000
C       -1.11490000      -0.89590000      -0.04900000
N       -0.50020000      -2.14130000       0.04740000
C       -1.15570000      -3.41820000      -0.07680000
C       -1.60830000      -3.70870000      -1.50880000
O       -2.50040000      -4.46510000      -1.77870000
C        0.83060000      -1.90820000       0.18150000
N        1.11520000      -0.62330000       0.18810000
H        0.75590000       1.81460000      -0.12500000
H       -0.86380000       1.80970000      -0.50670000
H       -2.18310000      -0.79610000      -0.14100000
H       -0.44830000      -4.20360000       0.21520000
H       -2.02000000      -3.49250000       0.59080000
H       -1.02400000      -3.16810000      -2.28660000
H        1.54420000      -2.71400000       0.27440000
