18
Properties=species:S:1:pos:R:3 gdb_82087=T pbc="F F F"
N       -0.09790000       1.20990000      -0.11110000
H       -0.77740000       1.06960000      -0.85080000
H        0.78330000      -0.15130000       0.48190000
H        0.51800000       1.96470000      -0.39250000
C       -0.77250000       1.49770000       1.16770000
C       -2.20090000       0.98660000       1.31670000
C       -2.24760000      -0.52230000       1.30810000
C       -1.80990000       0.17930000       2.55770000
C       -0.34700000       0.64080000       2.43040000
C        0.68400000      -0.48660000       2.36140000
O        1.15040000      -0.79780000       1.14590000
O        1.02530000      -1.08010000       3.35180000
H       -0.70500000       2.56140000       1.41280000
H       -3.08730000       1.58520000       1.14370000
H       -3.24890000      -0.93860000       1.34020000
H       -1.54390000      -1.10990000       0.72560000
H       -2.34080000       0.08100000       3.49480000
H       -0.05900000       1.28800000       3.26040000
