17
Properties=species:S:1:pos:R:3 gdb_128469=T pbc="F F F"
C       -0.64510000       0.81480000      -0.14870000
O        0.58940000       0.14500000       0.02280000
C        1.04280000      -0.53850000      -1.12360000
C        2.47580000      -0.99310000      -0.84700000
C        0.15950000      -1.71320000      -1.46610000
N       -0.29500000      -2.05870000      -2.63530000
C       -0.98720000      -3.20710000      -2.33740000
N       -0.97790000      -3.55400000      -1.08060000
O       -0.20250000      -2.55010000      -0.48590000
H       -0.59880000       1.53900000      -0.97550000
H       -1.47190000       0.11680000      -0.34100000
H       -0.84610000       1.34830000       0.78240000
H        1.01980000       0.11810000      -2.00650000
H        2.49660000      -1.66600000       0.01380000
H        2.88920000      -1.51220000      -1.71560000
H        3.09300000      -0.11940000      -0.62580000
H       -1.51440000      -3.79370000      -3.07570000
