20
Properties=species:S:1:pos:R:3 gdb_39163=T pbc="F F F"
C       -0.03560000       1.51100000      -0.12980000
C        1.44190000       1.96490000       0.10730000
C        2.24080000       0.67290000       0.00010000
N        3.44780000       0.53250000      -0.83740000
C        3.51310000       0.15680000       0.58250000
C        3.30830000      -1.31460000       0.94810000
C        1.98890000      -1.75190000       0.23150000
C        1.26610000      -0.44980000       0.01470000
C        0.01190000      -0.00520000      -0.03140000
H       -0.71700000       1.94280000       0.61240000
H       -0.41070000       1.83730000      -1.10930000
H        1.78130000       2.70390000      -0.62130000
H        1.54640000       2.41090000       1.10140000
H        3.39680000      -0.28490000      -1.44300000
H        4.18180000       0.76200000       1.18830000
H        4.16260000      -1.94260000       0.67290000
H        3.18880000      -1.39400000       2.03480000
H        2.21270000      -2.24580000      -0.72210000
H        1.41470000      -2.47130000       0.82050000
H       -0.88600000      -0.61180000       0.01280000
