20
Properties=species:S:1:pos:R:3 gdb_88118=T pbc="F F F"
C        0.00100000       1.46880000      -0.29110000
C        0.10200000      -0.02420000      -0.07640000
C        1.43340000      -0.71410000      -0.00590000
C        0.57330000      -0.58840000       1.24280000
C        0.97160000       0.23040000       2.46100000
C        1.06090000      -0.85590000       3.54350000
O        0.15840000      -1.89740000       3.13060000
C       -0.06470000      -1.82410000       1.78410000
N       -0.71550000      -2.67570000       1.11360000
H        0.82860000       2.00460000       0.18500000
H        0.02590000       1.70700000      -1.35990000
H       -0.93430000       1.86890000       0.11560000
H       -0.69150000      -0.61390000      -0.52730000
H        1.52430000      -1.70320000      -0.43990000
H        2.33030000      -0.10250000      -0.04620000
H        1.91380000       0.77010000       2.34520000
H        0.19380000       0.95920000       2.71570000
H        2.07230000      -1.27520000       3.61400000
H        0.75050000      -0.52070000       4.53550000
H       -1.02750000      -3.44470000       1.70700000
