17
Properties=species:S:1:pos:R:3 gdb_17306=T pbc="F F F"
C        0.03460000       1.48300000       0.01750000
C       -0.02870000      -0.01350000       0.02190000
C       -0.93840000      -0.81460000       0.89460000
O       -1.95890000      -1.67600000       0.46340000
C        0.53930000      -1.08690000       0.98530000
C        1.15380000      -1.73490000      -0.26200000
C        0.21630000      -2.08020000      -1.35250000
N        0.63560000      -0.66640000      -1.17930000
H        1.05480000       1.82600000      -0.17990000
H       -0.60920000       1.88530000      -0.77390000
H       -0.29740000       1.89810000       0.97370000
H       -1.24910000      -0.19920000       1.74390000
H       -2.01340000      -2.40090000       1.09640000
H        1.09150000      -0.96360000       1.90950000
H        2.20470000      -2.00590000      -0.28770000
H        0.66540000      -2.50440000      -2.24740000
H       -0.80250000      -2.37150000      -1.15010000
