23
Properties=species:S:1:pos:R:3 gdb_96095=T pbc="F F F"
C       -0.01920000       1.56740000       0.00250000
C        0.02670000       0.03820000       0.00780000
C        0.68420000      -0.53000000      -1.26100000
C        0.79320000      -2.05330000      -1.18190000
O        1.50450000      -2.46700000      -0.02180000
C        0.89000000      -2.02380000       1.16160000
C       -0.18060000      -2.91890000       1.74570000
C        1.20570000      -2.85040000       2.36350000
C        0.76590000      -0.51530000       1.24050000
H        0.99150000       1.99050000      -0.03340000
H       -0.56870000       1.94540000      -0.86640000
H       -0.50880000       1.95360000       0.90310000
H       -1.00600000      -0.33940000       0.04490000
H        0.11320000      -0.24700000      -2.15380000
H        1.69140000      -0.10640000      -1.37220000
H       -0.21370000      -2.50290000      -1.18520000
H        1.34660000      -2.45800000      -2.03440000
H       -1.00970000      -2.46750000       2.28070000
H       -0.42870000      -3.81820000       1.19340000
H        1.86000000      -3.70040000       2.20780000
H        1.32610000      -2.34760000       3.31710000
H        1.77380000      -0.07930000       1.28470000
H        0.24870000      -0.22640000       2.16240000
