12
Properties=species:S:1:pos:R:3 gdb_133168=T pbc="F F F"
C       -0.16030000       1.87260000      -0.11690000
C        0.25180000       0.41870000       0.00960000
C        0.36700000      -0.48500000      -1.12520000
F        0.05770000       0.16430000      -2.26910000
O        0.68030000      -1.63640000      -1.14050000
N       -0.76070000      -4.39080000       0.69750000
N       -0.89900000      -3.34000000       0.98650000
C        0.53520000      -0.11350000       1.19450000
O        0.77830000      -0.54810000       2.23490000
H        0.53910000       2.41570000      -0.75850000
H       -1.15820000       1.95210000      -0.55700000
H       -0.17880000       2.36380000       0.85850000
