17
Properties=species:S:1:pos:R:3 gdb_75813=T pbc="F F F"
O        0.57460000       0.98870000      -0.58930000
C        0.19750000      -0.21970000      -0.00230000
C       -0.00280000      -0.25880000       1.51100000
O        0.43420000       0.44630000       2.37840000
C       -1.19250000      -1.21310000       1.38330000
C       -1.27590000      -0.74790000      -0.10010000
C       -2.37770000       0.20220000      -0.59940000
C       -2.62280000      -0.88900000      -1.66110000
O       -1.57360000      -1.71870000      -1.10570000
H        0.74500000       1.61020000       0.13030000
H        0.85280000      -1.04020000      -0.33380000
H       -0.89500000      -2.26510000       1.44490000
H       -2.04600000      -1.03430000       2.03960000
H       -3.19980000       0.37920000       0.09560000
H       -1.99760000       1.15120000      -0.97970000
H       -3.59630000      -1.38950000      -1.61900000
H       -2.40730000      -0.60300000      -2.69610000
