19
Properties=species:S:1:pos:R:3 gdb_46880=T pbc="F F F"
O       -0.14330000       1.48040000      -1.84130000
C       -0.02060000       1.62130000      -0.63680000
C       -1.25370000       1.56450000       0.25620000
C       -1.40800000       2.68620000       1.29310000
C       -0.49370000       2.64730000       2.50170000
C        0.08200000       1.38640000       3.07110000
C        1.00240000       2.41470000       2.40880000
C        1.73970000       2.12390000       1.16620000
C        1.33450000       1.80000000      -0.07410000
H       -2.11000000       1.57170000      -0.42270000
H       -1.26380000       0.58850000       0.75790000
H       -1.29730000       3.65800000       0.79530000
H       -2.44150000       2.65280000       1.65930000
H       -0.75890000       3.39840000       3.24190000
H        0.14750000       1.27730000       4.14790000
H       -0.06190000       0.45430000       2.53780000
H        1.59710000       2.98700000       3.11420000
H        2.81870000       2.20830000       1.29120000
H        2.09790000       1.65780000      -0.83440000
