14
Properties=species:S:1:pos:R:3 gdb_5793=T pbc="F F F"
C        0.07490000       1.53770000       0.00750000
O        1.20530000       0.66790000      -0.03040000
C       -0.09290000       0.07150000       0.02230000
C       -0.42240000      -0.67130000       1.25590000
C        0.35560000      -0.78000000       2.36790000
O       -0.26170000      -1.53790000       3.31190000
C       -1.45580000      -1.92300000       2.79180000
C       -1.61170000      -1.42910000       1.53720000
H       -0.05990000       2.08880000       0.93640000
H       -0.11650000       2.09610000      -0.90820000
H       -0.40560000      -0.40100000      -0.91000000
H        1.33450000      -0.40660000       2.61420000
H       -2.06870000      -2.53800000       3.42970000
H       -2.46140000      -1.57590000       0.88860000
