18
Properties=species:S:1:pos:R:3 gdb_72346=T pbc="F F F"
C        0.01040000       1.49870000      -0.01570000
C       -0.03130000      -0.00820000       0.06520000
C       -1.35910000      -0.72520000      -0.21680000
C       -1.34130000      -1.91750000       0.71350000
C       -0.24530000      -1.94210000       1.47460000
C        0.66000000      -0.80360000       1.15170000
C        1.24340000      -0.78050000      -0.27110000
C        1.22780000      -1.93720000      -1.11930000
N        1.21350000      -2.85370000      -1.82590000
H        0.98920000       1.89050000       0.27790000
H       -0.19610000       1.84640000      -1.03420000
H       -0.74030000       1.94260000       0.64730000
H       -2.20660000      -0.05880000      -0.00750000
H       -1.45320000      -1.02750000      -1.26720000
H       -2.12470000      -2.66580000       0.71400000
H        0.00420000      -2.69970000       2.20720000
H        1.26450000      -0.33400000       1.92060000
H        2.12760000      -0.16300000      -0.39980000
