15
Properties=species:S:1:pos:R:3 gdb_48382=T pbc="F F F"
O       -0.31540000       0.35870000      -0.70000000
C        0.03960000       1.11650000       0.16910000
C        1.28570000       1.94120000       0.08960000
C        2.31710000       1.56500000      -0.96250000
C        1.52780000       2.80210000      -1.20440000
C        0.52050000       2.89200000      -2.21560000
C       -0.31130000       3.00950000      -3.07460000
C        1.75720000       2.58420000       1.34370000
O        1.20320000       2.49430000       2.41050000
H       -0.53710000       1.25770000       1.10160000
H        3.36360000       1.66860000      -0.69730000
H        2.04840000       0.68690000      -1.53810000
H        2.03580000       3.73930000      -0.98710000
H       -1.05000000       3.09400000      -3.83310000
H        2.69340000       3.17960000       1.22650000
