15
Properties=species:S:1:pos:R:3 gdb_31896=T pbc="F F F"
C       -0.21770000       1.47880000       0.08630000
N       -0.10100000       0.06510000      -0.25590000
C       -1.16480000      -0.77700000      -0.06660000
C       -1.29710000      -2.12870000       0.11790000
N       -2.63890000      -2.44110000       0.16150000
C       -3.26440000      -1.31240000       0.01620000
O       -2.40280000      -0.23580000      -0.13030000
C       -4.64370000      -1.04640000      -0.00220000
C       -5.82480000      -0.81260000      -0.02030000
H        0.70530000       1.98260000      -0.20740000
H       -1.04330000       1.92180000      -0.47350000
H       -0.39410000       1.65400000       1.15710000
H        0.77910000      -0.35850000      -0.00330000
H       -0.52760000      -2.87660000       0.21650000
H       -6.86790000      -0.61490000      -0.03440000
