21
Properties=species:S:1:pos:R:3 gdb_116262=T pbc="F F F"
O       -0.24110000       1.56750000       0.11750000
C       -0.00990000       0.16500000       0.17740000
C       -1.35250000      -0.52710000       0.00890000
C       -2.04000000      -0.27900000      -1.35290000
C       -2.94240000      -1.52010000      -1.60900000
C       -2.72270000      -2.45930000      -0.40060000
C       -1.32340000      -2.07520000       0.14510000
C       -0.25310000      -2.70210000      -0.62800000
C        0.61450000      -3.23010000      -1.27310000
H        0.61100000       2.01200000       0.14330000
H        0.67520000      -0.16320000      -0.61790000
H        0.44200000      -0.12090000       1.14160000
H       -2.01090000      -0.16180000       0.80740000
H       -2.59840000       0.65890000      -1.34720000
H       -1.28200000      -0.18870000      -2.13770000
H       -3.99710000      -1.25360000      -1.71790000
H       -2.64590000      -2.02060000      -2.53480000
H       -3.46050000      -2.25520000       0.38320000
H       -2.79550000      -3.51850000      -0.65660000
H       -1.21310000      -2.37180000       1.19470000
H        1.38430000      -3.69840000      -1.83480000
