23
Properties=species:S:1:pos:R:3 gdb_114759=T pbc="F F F"
C       -0.13490000       1.53590000      -0.13780000
C        0.06320000       0.02010000      -0.04120000
C        0.75350000      -0.44860000       1.25320000
C        0.61680000      -1.97710000       1.42950000
C        1.43210000      -2.52320000       2.60080000
C        2.72850000      -3.25550000       2.34400000
C        2.74680000      -1.84570000       2.90370000
C        3.11640000      -0.69260000       2.04670000
C        2.21340000      -0.04680000       1.30660000
H        0.81530000       2.07850000      -0.10190000
H       -0.63220000       1.80890000      -1.07390000
H       -0.75420000       1.90430000       0.68780000
H       -0.91580000      -0.47130000      -0.11080000
H        0.64370000      -0.33570000      -0.90310000
H        0.23340000       0.03650000       2.09540000
H       -0.44010000      -2.23650000       1.55920000
H        0.93680000      -2.45540000       0.49540000
H        0.85420000      -2.85940000       3.45580000
H        3.00620000      -4.07020000       3.00480000
H        3.03030000      -3.38880000       1.30990000
H        3.03810000      -1.76200000       3.94800000
H        4.15680000      -0.37450000       2.04580000
H        2.52430000       0.80150000       0.70190000
