17
Properties=species:S:1:pos:R:3 gdb_18434=T pbc="F F F"
C       -0.28270000       1.55310000       0.00370000
C        0.04080000       0.06490000       0.01240000
C        1.17860000      -0.52060000      -0.90010000
C        1.75450000      -1.24620000       0.32310000
C        2.19330000      -0.24840000       1.37360000
C        2.79970000       1.01500000       1.04500000
N        3.31130000       2.01860000       0.77880000
C        0.71930000      -0.58920000       1.22780000
H        0.60170000       2.17020000       0.17550000
H       -0.71150000       1.84400000      -0.96150000
H       -1.01960000       1.79310000       0.77830000
H       -0.87450000      -0.50130000      -0.18980000
H        0.80300000      -1.19490000      -1.67110000
H        1.84920000       0.20850000      -1.36380000
H        2.14400000      -2.25650000       0.34330000
H        2.64080000      -0.70840000       2.25030000
H        0.20190000      -1.00140000       2.08680000
