16
Properties=species:S:1:pos:R:3 gdb_52988=T pbc="F F F"
C       -0.03040000       1.51310000      -0.03630000
C       -0.02000000       0.05890000      -0.01400000
C       -0.00410000      -1.14550000       0.01140000
C        0.02850000      -2.56340000       0.04950000
C       -0.31620000      -3.46670000      -1.16140000
C       -1.06400000      -3.63270000       0.10300000
O       -0.28360000      -4.43340000       1.02040000
C        0.70100000      -3.44260000       1.06860000
N        1.72430000      -3.34860000       1.77960000
H        0.83040000       1.91540000       0.50900000
H        0.01710000       1.89770000      -1.06110000
H       -0.93630000       1.91530000       0.43080000
H       -0.82160000      -2.92830000      -1.95620000
H        0.38050000      -4.23680000      -1.47700000
H       -2.12700000      -3.55360000       0.28180000
H        1.82670000      -4.15860000       2.39310000
