19
Properties=species:S:1:pos:R:3 gdb_37443=T pbc="F F F"
C       -0.05210000       1.51230000      -0.11180000
C        1.29420000       0.84250000       0.03120000
C        0.02610000       0.01560000       0.01570000
C       -0.13460000      -0.62650000       1.38970000
O        0.94140000      -1.52760000       1.60310000
C        2.21350000      -0.86410000       1.53280000
C        1.98760000       0.65320000       1.37970000
C        1.05980000       1.06110000       2.52760000
O       -0.18090000       0.34750000       2.41420000
H       -0.47750000       2.07640000       0.70850000
H       -0.28370000       1.90600000      -1.09540000
H        1.94220000       0.82790000      -0.83940000
H       -0.21510000      -0.61660000      -0.83180000
H       -1.04580000      -1.21820000       1.49120000
H        2.76050000      -1.08940000       2.45740000
H        2.78850000      -1.26560000       0.68730000
H        2.93500000       1.19560000       1.44850000
H        1.52260000       0.81860000       3.49390000
H        0.84630000       2.13640000       2.51510000
