22
Properties=species:S:1:pos:R:3 gdb_40358=T pbc="F F F"
C       -0.19940000       1.22980000      -0.37920000
C        1.20610000       1.02880000       0.07300000
N        0.24310000      -0.06670000       0.11590000
C       -0.20550000      -0.52230000       1.40190000
C       -0.59350000       0.36760000       2.64440000
C       -1.32390000      -0.93670000       3.07170000
C       -1.61000000      -1.16700000       1.56070000
C       -0.14610000      -1.89830000       3.32790000
C        0.70600000      -1.58100000       2.05880000
H       -0.83970000       1.83980000       0.25390000
H       -0.43740000       1.26830000      -1.43850000
H        2.01280000       0.92520000      -0.64720000
H        1.49030000       1.49730000       1.01350000
H        0.20560000       0.74410000       3.29040000
H       -1.29200000       1.17030000       2.39650000
H       -2.12910000      -0.91660000       3.80540000
H       -2.40640000      -0.52360000       1.17830000
H       -1.74530000      -2.19250000       1.20460000
H        0.38040000      -1.67000000       4.25940000
H       -0.46530000      -2.94370000       3.37060000
H        0.84500000      -2.44390000       1.40240000
H        1.69400000      -1.17560000       2.29640000
