17
Properties=species:S:1:pos:R:3 gdb_98380=T pbc="F F F"
C        0.10740000       1.38750000      -0.14280000
N        0.25980000      -0.05600000      -0.02360000
C        0.38780000      -0.79180000      -1.18830000
N        0.29850000      -0.25760000      -2.33260000
N        0.57680000      -2.19830000      -0.91170000
C        1.35320000      -3.03470000      -1.73090000
N        1.91370000      -2.63130000      -2.79410000
C       -0.12150000      -2.80660000       0.14270000
O       -0.02220000      -3.97120000       0.44080000
H        0.96410000       1.86140000      -0.63730000
H       -0.77990000       1.60730000      -0.73880000
H       -0.01850000       1.80660000       0.85800000
H        0.85860000      -0.36000000       0.73030000
H        0.37620000      -0.94820000      -3.07290000
H        1.38460000      -4.04290000      -1.31620000
H        2.43290000      -3.39700000      -3.22080000
H       -0.77760000      -2.09260000       0.66060000
