21
Properties=species:S:1:pos:R:3 gdb_66369=T pbc="F F F"
O       -0.08270000       1.40370000       0.02010000
C        0.02990000      -0.02140000      -0.03850000
C        0.78860000      -0.55230000       1.20070000
C        0.73620000      -2.08180000       1.31590000
C       -0.71320000      -2.58880000       1.31350000
C       -1.47760000      -2.08200000       0.08210000
C       -1.41660000      -0.55370000      -0.03120000
C        0.72940000      -0.41260000      -1.27340000
C        1.32940000      -0.70390000      -2.27470000
H        0.79750000       1.77180000      -0.11600000
H        1.82630000      -0.20070000       1.16760000
H        0.31550000      -0.08950000       2.07510000
H        1.28130000      -2.52670000       0.47400000
H        1.25280000      -2.40010000       2.22800000
H       -0.73190000      -3.68370000       1.34560000
H       -1.22040000      -2.23990000       2.22380000
H       -1.04820000      -2.52810000      -0.82370000
H       -2.52420000      -2.40240000       0.12340000
H       -1.91450000      -0.08730000       0.82760000
H       -1.92720000      -0.20020000      -0.93150000
H        1.84830000      -0.95910000      -3.16570000
