12
Properties=species:S:1:pos:R:3 gdb_53726=T pbc="F F F"
N        0.19970000       1.20520000      -0.44320000
C       -0.16410000       0.23820000       0.43940000
O        0.42910000      -0.02200000       1.46570000
C       -1.37460000      -0.49120000       0.06230000
C       -2.35790000      -1.14920000      -0.18620000
C       -3.55460000      -1.91580000      -0.45230000
O       -3.66170000      -2.71200000      -1.35300000
C       -4.72390000      -1.63560000       0.52760000
O       -5.78630000      -2.17250000       0.40280000
H        1.04890000       1.71720000      -0.26430000
H       -0.27440000       1.32670000      -1.32170000
H       -4.49710000      -0.91010000       1.33730000
