16
Properties=species:S:1:pos:R:3 gdb_14289=T pbc="F F F"
O       -0.00080000       1.32540000      -0.20160000
C       -0.03530000      -0.06340000      -0.03490000
C       -0.49600000      -0.66010000       1.27500000
C       -1.10430000       0.29260000       2.28230000
C       -2.27510000       0.98400000       1.56030000
O       -2.87340000       1.94240000       1.96920000
C       -2.56730000       0.23760000       0.24910000
C       -1.39360000      -0.69530000       0.03080000
H        0.75690000       1.67270000       0.28100000
H        0.73440000      -0.60880000      -0.58010000
H       -0.00740000      -1.56010000       1.63040000
H       -1.50700000      -0.25200000       3.14510000
H       -0.42070000       1.05050000       2.67730000
H       -3.50050000      -0.32540000       0.37240000
H       -2.72550000       0.96250000      -0.55330000
H       -1.55420000      -1.62070000      -0.50920000
