21
Properties=species:S:1:pos:R:3 gdb_74415=T pbc="F F F"
C        0.07140000       1.51190000       0.05510000
C       -0.04930000       0.02340000      -0.01140000
C       -0.12980000      -0.73980000      -1.10670000
C       -0.14840000      -2.19590000      -0.75860000
C       -0.74620000      -3.20930000      -1.69340000
O        1.06480000      -2.60160000      -0.06020000
C       -0.09380000      -2.26880000       0.72010000
C       -0.65500000      -3.36420000       1.58540000
C       -0.05610000      -0.83150000       1.24470000
H        1.01970000       1.81090000       0.51980000
H        0.02510000       1.96390000      -0.93930000
H       -0.72650000       1.94930000       0.66910000
H       -0.14130000      -0.37490000      -2.12790000
H       -0.17060000      -3.25590000      -2.62460000
H       -0.74590000      -4.20770000      -1.25080000
H       -1.77580000      -2.93810000      -1.95050000
H       -0.67200000      -4.31820000       1.05390000
H       -0.04030000      -3.49370000       2.48360000
H       -1.67320000      -3.12370000       1.90950000
H        0.83310000      -0.65700000       1.86400000
H       -0.92850000      -0.61160000       1.87570000
