16
Properties=species:S:1:pos:R:3 gdb_128777=T pbc="F F F"
C       -0.13490000       1.36850000      -0.05590000
O       -0.15300000      -0.03460000       0.09240000
C        0.76090000      -0.49600000       1.06740000
C        0.70530000      -1.98470000       1.07350000
C        1.05560000      -2.95830000       1.98260000
O        1.56550000      -2.77790000       3.21830000
N        0.81810000      -4.18140000       1.45680000
N        0.32500000      -4.03380000       0.24950000
N        0.26960000      -2.72010000       0.01670000
H        0.85790000       1.73140000      -0.36280000
H       -0.86210000       1.62170000      -0.83020000
H       -0.41610000       1.87690000       0.87850000
H        1.77870000      -0.13830000       0.83020000
H        0.51410000      -0.10770000       2.06850000
H        1.68000000      -3.65700000       3.60110000
H       -0.12490000      -2.36320000      -0.83940000
