19
Properties=species:S:1:pos:R:3 gdb_101279=T pbc="F F F"
C       -0.64610000       1.57920000       0.16830000
C       -1.09620000       0.14030000       0.43890000
C       -1.39510000      -0.62520000      -0.85250000
O       -0.26820000      -0.63730000      -1.73170000
C       -1.85250000      -2.07020000      -0.68710000
N       -1.35850000      -2.85110000       0.44790000
C       -2.81190000      -2.62990000       0.32070000
C       -3.47400000      -1.86490000       1.35020000
N       -4.05570000      -1.27980000       2.16030000
H       -0.40390000       2.09070000       1.10410000
H        0.23570000       1.60250000      -0.47680000
H       -1.43600000       2.15200000      -0.33000000
H       -0.32750000      -0.40730000       0.99810000
H       -1.98600000       0.14710000       1.07480000
H       -2.17390000      -0.09660000      -1.41720000
H        0.47340000      -1.00600000      -1.23710000
H       -1.89770000      -2.57480000      -1.65170000
H       -1.13340000      -3.80580000       0.18230000
H       -3.42400000      -3.45770000      -0.03040000
