12
Properties=species:S:1:pos:R:3 gdb_50053=T pbc="F F F"
O       -0.21530000       0.32090000       0.82700000
C        0.32230000       0.73940000      -0.16320000
C        1.38640000       1.79560000      -0.11910000
O        2.31420000       1.78920000      -1.20180000
C        1.41190000       2.88830000      -1.13660000
C        0.42690000       3.00840000      -2.17550000
C       -0.38720000       3.16260000      -3.05460000
C       -1.31040000       3.32770000      -4.04650000
N       -2.09650000       3.46910000      -4.88980000
H        0.08470000       0.37470000      -1.18400000
H        1.79490000       2.01210000       0.86660000
H        1.86110000       3.83000000      -0.82230000
