21
Properties=species:S:1:pos:R:3 gdb_40874=T pbc="F F F"
C       -0.06240000       1.55130000      -0.12630000
C        1.48280000       1.53380000       0.02040000
C        1.37260000       0.09080000       0.58610000
C       -0.06930000       0.00560000       0.03460000
C        2.50350000      -0.97900000       0.40980000
C        3.19930000      -0.27120000       1.62250000
C        1.71390000      -0.15190000       2.10440000
C        1.34490000      -1.63600000       2.23090000
C        1.85980000      -2.17670000       1.12210000
H       -0.54880000       2.05420000       0.71400000
H       -0.46980000       1.95890000      -1.05400000
H        1.98750000       1.55190000      -0.95150000
H        1.93810000       2.29600000       0.65820000
H       -0.82800000      -0.43720000       0.68320000
H       -0.10290000      -0.50610000      -0.93280000
H        3.00440000      -1.13830000      -0.54610000
H        3.87260000      -0.87770000       2.23260000
H        3.65960000       0.68790000       1.36820000
H        1.40380000       0.53960000       2.88900000
H        0.78780000      -2.09490000       3.03540000
H        1.83870000      -3.19870000       0.77120000
