13
Properties=species:S:1:pos:R:3 gdb_131270=T pbc="F F F"
O       -0.04610000       1.34800000       0.06070000
C        0.04270000      -0.00340000       0.00590000
C       -0.07890000      -0.80800000      -1.10750000
N        0.07210000      -2.08620000      -0.66130000
N        0.30190000      -2.17230000       0.66090000
C        0.27230000      -0.91030000       1.06150000
O        0.47780000      -0.51770000       2.35690000
C       -0.06620000      -1.28150000       3.35760000
O        0.12960000      -1.02780000       4.50300000
H        0.10800000       1.61930000       0.97300000
H       -0.25850000      -0.57000000      -2.14230000
H        0.06500000      -2.93030000      -1.20610000
H       -0.67240000      -2.11000000       2.96150000
