19
Properties=species:S:1:pos:R:3 gdb_91662=T pbc="F F F"
C       -0.02840000       1.52550000      -0.00110000
C        0.08280000       0.01160000       0.07430000
O        0.94710000      -0.50200000      -0.98470000
C        1.92050000      -1.25940000      -0.25250000
C        1.06500000      -2.03430000       0.78720000
C        0.79930000      -0.58070000       1.30720000
C        2.26940000      -0.33480000       0.91600000
C        3.46930000      -0.19930000       1.72850000
O        2.98510000       0.87270000       0.88890000
H        0.94040000       2.00390000       0.15320000
H       -0.41170000       1.82010000      -0.98260000
H       -0.72770000       1.89100000       0.75910000
H       -0.91100000      -0.43980000      -0.04770000
H        2.64270000      -1.70970000      -0.93030000
H        0.21160000      -2.58530000       0.38870000
H        1.64880000      -2.64380000       1.47840000
H        0.39430000      -0.35990000       2.29330000
H        3.38580000      -0.02190000       2.79990000
H        4.40680000      -0.64840000       1.40370000
