16
Properties=species:S:1:pos:R:3 gdb_52278=T pbc="F F F"
N       -0.42600000       1.10210000      -0.30250000
C       -0.47450000      -0.15340000      -0.39820000
O       -0.60540000      -0.90060000       0.72500000
C       -0.73320000      -2.30410000       0.54950000
C       -2.16190000      -2.71160000       0.22270000
O       -2.56030000      -2.42040000      -1.14060000
C       -2.85550000      -3.79760000      -1.46090000
C       -2.41150000      -4.20570000      -0.05190000
O       -2.27950000      -5.22060000       0.55760000
H       -0.30940000       1.51530000      -1.22540000
H       -0.41890000      -0.75000000      -1.31610000
H       -0.05130000      -2.66510000      -0.23120000
H       -0.44390000      -2.75950000       1.50080000
H       -2.85280000      -2.26460000       0.94980000
H       -3.91670000      -3.96680000      -1.68200000
H       -2.24440000      -4.19010000      -2.28300000
