15
Properties=species:S:1:pos:R:3 gdb_29845=T pbc="F F F"
C        0.00230000       1.46590000       0.00940000
N       -0.03770000       0.02030000       0.00120000
C       -1.15870000      -0.78580000       0.00400000
C       -0.75330000      -2.08450000      -0.00650000
N        0.64900000      -2.05530000      -0.01580000
C        1.12690000      -0.75820000      -0.01090000
O        2.27710000      -0.36560000      -0.01650000
C       -1.49850000      -3.27430000      -0.00870000
C       -2.11090000      -4.31260000      -0.01090000
H        1.05500000       1.75320000       0.00240000
H       -0.49170000       1.88010000      -0.87560000
H       -0.47680000       1.86960000       0.90730000
H       -2.15740000      -0.38450000       0.01290000
H        1.25380000      -2.85740000      -0.02450000
H       -2.66130000      -5.22050000      -0.01270000
