17
Properties=species:S:1:pos:R:3 gdb_47113=T pbc="F F F"
O       -0.05260000       0.00550000       0.06530000
C       -0.02620000       1.20220000       0.08180000
O       -1.14700000       1.95450000       0.20330000
C       -0.85630000       3.35570000       0.27540000
C        0.66650000       3.54350000       0.05810000
C        1.40510000       4.12300000       1.27920000
O        1.67860000       3.00520000       2.10820000
C        2.11320000       1.97670000       1.23330000
C        1.20400000       2.09790000      -0.01510000
H       -1.45460000       3.85940000      -0.48840000
H       -1.17480000       3.71330000       1.25990000
H        0.86090000       4.12320000      -0.84530000
H        2.33980000       4.61320000       0.96180000
H        0.81580000       4.83960000       1.85780000
H        3.16570000       2.12720000       0.94790000
H        2.01680000       1.01650000       1.74360000
H        1.74160000       1.84910000      -0.93110000
