19
Properties=species:S:1:pos:R:3 gdb_92979=T pbc="F F F"
C       -0.19870000       1.58190000      -0.05680000
C        0.06160000       0.08420000      -0.04560000
O        1.07800000      -0.22340000      -1.05260000
C        2.08040000      -0.82850000      -0.39170000
N        1.98570000      -1.05380000       0.85320000
C        0.66320000      -0.53940000       1.26330000
C        0.78350000       0.40470000       2.44940000
C        1.74730000       0.12770000       3.53800000
N        1.96680000       1.26100000       2.61500000
H        0.66990000       2.14170000       0.29810000
H       -0.44240000       1.90850000      -1.07120000
H       -1.04730000       1.82390000       0.59000000
H       -0.83870000      -0.45500000      -0.35400000
H        2.93440000      -1.08840000      -1.00870000
H        0.04630000      -1.39120000       1.57710000
H       -0.14980000       0.89850000       2.71310000
H        1.50470000       0.40770000       4.55910000
H        2.38560000      -0.74330000       3.42850000
H        2.66570000       0.96600000       1.93400000
