18
Properties=species:S:1:pos:R:3 gdb_61255=T pbc="F F F"
O       -0.55620000       1.20070000       0.09870000
C       -0.10430000      -0.15170000       0.04310000
C        0.76220000      -0.39280000      -1.21330000
C        0.09140000      -0.01280000      -2.45410000
N       -0.43710000       0.28520000      -3.43700000
C        0.63410000      -0.58630000       1.29950000
C        1.48530000       0.39440000       2.09790000
C        0.18300000      -0.12160000       2.66210000
O       -0.92570000       0.69750000       2.83890000
H        0.20440000       1.78650000       0.00770000
H       -1.02520000      -0.73720000      -0.05400000
H        1.69950000       0.17110000      -1.12390000
H        1.03950000      -1.45100000      -1.26890000
H        1.00420000      -1.60690000       1.23740000
H        2.42870000       0.05180000       2.50870000
H        1.49060000       1.43530000       1.78820000
H        0.24730000      -0.84140000       3.47200000
H       -1.07940000       1.16600000       2.00580000
