15
Properties=species:S:1:pos:R:3 gdb_78125=T pbc="F F F"
C       -0.08350000       1.56450000       0.00040000
C        0.08060000       0.06110000      -0.06240000
C        0.59470000      -0.72060000      -1.22990000
N        1.33070000      -0.68330000       0.12580000
C        2.43550000       0.14990000      -0.48820000
C        3.72810000      -0.50890000      -0.41410000
N        4.76360000      -1.02020000      -0.37850000
C        1.73500000      -0.01310000      -1.88670000
O        2.09040000       0.16140000      -3.00940000
H        0.60150000       2.11410000      -0.64740000
H       -1.09980000       1.82230000      -0.31160000
H        0.04800000       1.91810000       1.02830000
H       -0.71890000      -0.46980000       0.45160000
H        0.09470000      -1.60110000      -1.61720000
H        2.51420000       1.16200000      -0.08460000
