15
Properties=species:S:1:pos:R:3 gdb_10868=T pbc="F F F"
C        0.06590000       1.46580000      -0.01280000
C       -0.02180000      -0.02440000       0.06620000
N        0.62330000      -0.96500000      -0.97940000
C        0.01370000      -1.94510000       0.02960000
C        0.62350000      -1.00300000       1.11830000
O        2.00400000      -0.96840000       1.25440000
C       -1.20640000      -1.00820000       0.00960000
O       -2.38660000      -1.02250000      -0.16650000
H        1.10710000       1.79360000       0.06600000
H       -0.34940000       1.84150000      -0.95310000
H       -0.49890000       1.91700000       0.80870000
H        0.10120000      -0.96040000      -1.85930000
H        0.10900000      -3.02220000      -0.08660000
H        0.17420000      -1.03120000       2.11130000
H        2.35520000      -0.96370000       0.35160000
