16
Properties=species:S:1:pos:R:3 gdb_98383=T pbc="F F F"
C        1.47490000       1.28220000       2.04110000
N        1.35780000      -0.15460000       1.88060000
C        0.58100000      -0.68840000       0.92500000
O       -0.08810000      -0.07690000       0.11470000
N        0.57370000      -2.14470000       0.89850000
C        1.27040000      -3.01110000       1.73930000
N        2.03710000      -2.62890000       2.68080000
C       -0.23350000      -2.74460000      -0.09520000
O       -0.33750000      -3.93680000      -0.23660000
H        0.85340000       1.76520000       1.28740000
H        1.13730000       1.59130000       3.03610000
H        2.51330000       1.60480000       1.91010000
H        1.86180000      -0.80010000       2.48870000
H        1.06100000      -4.04700000       1.47090000
H        2.43970000      -3.42830000       3.16310000
H       -0.73850000      -1.98700000      -0.70310000
