21
Properties=species:S:1:pos:R:3 gdb_91335=T pbc="F F F"
C        0.18280000       1.51270000       0.06230000
C        0.07920000       0.00380000       0.01210000
O        0.69510000      -0.45650000      -1.17990000
C        1.11970000      -1.81490000      -1.07910000
C        0.24260000      -2.60420000      -0.06900000
C        1.11730000      -1.89980000       1.01440000
C        1.30390000      -2.48870000       2.39100000
C        2.26740000      -1.89730000      -0.03800000
O        0.68960000      -0.53640000       1.17280000
H        1.23410000       1.80990000       0.07530000
H       -0.30120000       1.94660000      -0.81620000
H       -0.30780000       1.88950000       0.96310000
H       -0.97950000      -0.30420000      -0.00120000
H        1.26260000      -2.18420000      -2.09540000
H       -0.83980000      -2.46430000      -0.06520000
H        0.46990000      -3.67160000      -0.11140000
H        1.69140000      -3.50940000       2.32190000
H        2.01170000      -1.88590000       2.96840000
H        0.35410000      -2.50920000       2.93460000
H        2.80080000      -2.85140000      -0.07620000
H        2.96460000      -1.05850000      -0.00450000
