16
Properties=species:S:1:pos:R:3 gdb_48724=T pbc="F F F"
O       -0.05580000       0.14040000      -0.66880000
C        0.14140000       0.99670000       0.15300000
C        1.32220000       1.91510000       0.14090000
C        1.72390000       2.74620000       1.35240000
N        2.30130000       4.02420000       0.87320000
C        3.56520000       3.93270000       0.13480000
C        2.27930000       4.00870000      -0.60860000
C        1.68810000       2.70250000      -1.07170000
O        2.41670000       1.54080000      -0.70210000
H       -0.57190000       1.18610000       0.98620000
H        0.83430000       2.97720000       1.95010000
H        2.43360000       2.21890000       1.99770000
H        4.19370000       4.81510000       0.21640000
H        4.08940000       2.98270000       0.10550000
H        1.95540000       4.91320000      -1.11430000
H        1.12770000       2.63230000      -1.99960000
