12
Properties=species:S:1:pos:R:3 gdb_23933=T pbc="F F F"
C        0.13290000      -3.72370000      -0.01990000
C        0.07280000      -2.51700000      -0.01230000
C        0.00660000      -1.16240000      -0.00390000
C       -0.05370000       0.04850000       0.00350000
C       -0.11970000       1.45040000       0.01200000
N       -1.17760000       2.21540000       0.03050000
C       -0.67680000       3.50040000       0.03070000
C        0.68000000       3.45110000       0.01190000
O        1.05700000       2.14690000      -0.00030000
H        0.18470000      -4.78450000      -0.02650000
H       -1.32390000       4.36280000       0.04420000
H        1.47030000       4.18200000       0.00500000
