19
Properties=species:S:1:pos:R:3 gdb_92862=T pbc="F F F"
O        0.14340000       1.41440000      -0.01500000
C        0.06350000      -0.00200000       0.00100000
C        0.57040000      -0.58290000       1.35570000
C       -0.69840000      -0.63820000       2.19130000
C       -1.76750000      -0.62740000       1.39780000
C       -3.25410000      -0.48280000       1.50700000
O       -3.68640000      -0.08530000       0.19960000
C       -2.55750000       0.31120000      -0.59460000
C       -1.39330000      -0.52950000      -0.06410000
H       -0.29550000       1.73690000       0.78110000
H        0.66800000      -0.33030000      -0.84790000
H        1.00960000      -1.58130000       1.21930000
H        1.35460000       0.05410000       1.77910000
H       -0.69780000      -0.67120000       3.27500000
H       -3.76770000      -1.41870000       1.76320000
H       -3.54020000       0.26910000       2.25750000
H       -2.81890000       0.12210000      -1.63870000
H       -2.34570000       1.38310000      -0.47660000
H       -1.40670000      -1.52250000      -0.53510000
