11
Properties=species:S:1:pos:R:3 gdb_21817=T pbc="F F F"
O       -0.04290000      -0.05050000      -0.00060000
C        0.00720000       1.14650000       0.00780000
N        1.19300000       1.88890000      -0.00010000
N        2.45170000       1.30690000      -0.01840000
C        3.26110000       2.31260000      -0.02020000
N        2.61520000       3.52500000      -0.00420000
C        1.24080000       3.29730000       0.00960000
O        0.33270000       4.09100000       0.02550000
H       -0.85830000       1.82830000       0.02210000
H        4.33600000       2.21620000      -0.03290000
H        3.02250000       4.44460000      -0.00200000
