17
Properties=species:S:1:pos:R:3 gdb_93370=T pbc="F F F"
C        0.00310000       1.60760000       0.01090000
C        0.04200000       0.07330000       0.01180000
C        0.68750000      -0.50450000      -1.24950000
O        2.12010000      -0.34790000      -1.28590000
C        2.84860000      -0.86450000      -0.26700000
O        4.00720000      -1.13510000      -0.41560000
C        2.14820000      -0.99390000       1.06430000
O        1.89630000       0.27550000       1.68600000
C        0.77610000      -0.47960000       1.23210000
H        1.01210000       2.01860000      -0.06010000
H       -0.58520000       1.97320000      -0.83610000
H       -0.44960000       1.98890000       0.93070000
H       -0.98560000      -0.30940000       0.03960000
H        0.45480000      -1.57260000      -1.34320000
H        0.33000000       0.00090000      -2.14960000
H        2.56450000      -1.75610000       1.71740000
H        0.16940000      -0.89130000       2.03770000
