18
Properties=species:S:1:pos:R:3 gdb_88233=T pbc="F F F"
C       -1.27840000       0.13760000       0.53380000
C        0.07750000      -0.14260000      -0.05560000
O        0.87060000       0.97670000      -0.43970000
C        1.34660000       0.16000000       0.64890000
C        1.38270000       0.74440000       1.96080000
C        1.45070000       1.20870000       3.07280000
C        1.51340000       1.79080000       4.38250000
C        2.82320000       1.85720000       5.10150000
N        2.21410000       3.08440000       4.58660000
H       -1.22020000       0.92730000       1.28550000
H       -1.97320000       0.45140000      -0.25190000
H       -1.68350000      -0.76600000       1.00140000
H        0.11680000      -0.97060000      -0.76690000
H        2.21780000      -0.44160000       0.38910000
H        0.60950000       1.70000000       4.97920000
H        2.83250000       1.76750000       6.18400000
H        3.69020000       1.44320000       4.59540000
H        2.66440000       3.35250000       3.71440000
