25
Properties=species:S:1:pos:R:3 gdb_64354=T pbc="F F F"
C       -0.49770000       1.47260000       0.10080000
C       -0.05460000       0.00610000       0.03310000
C       -1.30730000      -0.87270000      -0.16720000
C        0.95870000      -0.26220000      -1.10400000
C        1.72710000      -1.55020000      -0.70210000
C        1.44570000      -1.75860000       0.80820000
C        0.73700000      -0.46900000       1.29680000
C        1.76820000       0.55570000       1.79300000
O       -0.20220000      -0.71900000       2.34260000
H        0.35160000       2.16090000       0.13710000
H       -1.09270000       1.73430000      -0.78080000
H       -1.11880000       1.64850000       0.98540000
H       -1.82770000      -0.56690000      -1.08120000
H       -1.06030000      -1.93340000      -0.26790000
H       -1.99530000      -0.77210000       0.67440000
H        0.45820000      -0.35810000      -2.07240000
H        1.65120000       0.58180000      -1.19670000
H        1.38610000      -2.41280000      -1.28100000
H        2.79660000      -1.44750000      -0.90580000
H        0.77090000      -2.60250000       0.97320000
H        2.35640000      -1.96160000       1.38120000
H        2.48810000       0.83100000       1.01620000
H        1.28140000       1.46450000       2.15400000
H        2.34160000       0.12590000       2.62390000
H        0.29240000      -0.93140000       3.14050000
