21
Properties=species:S:1:pos:R:3 gdb_36286=T pbc="F F F"
C        0.03480000      -1.19950000       0.01910000
C        0.00160000      -0.00330000       0.13410000
C       -0.00450000       1.45020000       0.26890000
C        1.39440000       2.05860000       0.09370000
C        2.00200000       2.07910000      -1.34510000
C        1.17720000       3.37710000      -1.58970000
C        1.47830000       3.60960000      -0.07950000
C        3.00530000       3.82430000      -0.10020000
C        3.40510000       2.65480000      -1.06730000
H        0.05120000      -2.25630000      -0.08050000
H       -0.71570000       1.87430000      -0.44850000
H       -0.38590000       1.71900000       1.26320000
H        2.05000000       1.63760000       0.86460000
H        1.93210000       1.21280000      -2.00320000
H        1.57570000       4.10500000      -2.30310000
H        0.12450000       3.19680000      -1.80880000
H        0.88320000       4.28910000       0.53330000
H        3.27930000       4.80810000      -0.49200000
H        3.45340000       3.72140000       0.89230000
H        4.06680000       1.92470000      -0.59250000
H        3.89540000       3.01030000      -1.97800000
