13
Properties=species:S:1:pos:R:3 gdb_2956=T pbc="F F F"
O       -0.01900000      -0.06770000      -0.05820000
C       -0.04390000       1.14810000      -0.02350000
C        1.18200000       1.92930000       0.01230000
C        2.18900000       2.58830000       0.04230000
C       -1.30740000       1.93280000      -0.01460000
C       -2.48640000       1.35200000      -0.78660000
C       -2.50140000       1.31070000       0.70030000
H        3.08930000       3.15290000       0.06860000
H       -1.20080000       3.01010000       0.01650000
H       -3.12700000       2.05750000      -1.30260000
H       -2.28740000       0.42440000      -1.31070000
H       -2.31240000       0.35530000       1.17600000
H       -3.15250000       1.98690000       1.24180000
