13
Properties=species:S:1:pos:R:3 gdb_11718=T pbc="F F F"
O       -0.00480000       1.43480000      -0.08850000
C        0.03930000       0.04350000      -0.02940000
C        0.39960000      -0.65140000       1.34530000
C       -0.97960000      -1.31860000       1.30050000
O       -1.95380000      -0.26360000       1.21500000
C       -1.31830000      -0.68660000       0.00360000
C       -1.38440000      -2.57620000       1.84640000
N       -1.66690000      -3.60320000       2.29640000
H       -0.66760000       1.72290000       0.55230000
H        0.68730000      -0.29930000      -0.83870000
H        1.23000000      -1.35440000       1.26000000
H        0.55470000       0.01510000       2.19570000
H       -1.96020000      -1.03130000      -0.79880000
