14
Properties=species:S:1:pos:R:3 gdb_47132=T pbc="F F F"
O       -0.06050000       0.00110000       0.22130000
C       -0.03420000       1.18490000       0.01710000
N       -1.18220000       1.95820000      -0.08760000
C       -1.16740000       3.36120000       0.01450000
C       -0.02280000       4.00530000      -0.25130000
C        1.14670000       3.17820000      -0.68120000
O        1.13050000       1.86090000      -0.09230000
C       -2.38550000       3.98140000       0.40000000
C       -3.43950000       4.46680000       0.71890000
H       -2.03140000       1.46380000       0.13600000
H        0.05660000       5.07940000      -0.17060000
H        1.17910000       3.06380000      -1.77600000
H        2.09620000       3.61770000      -0.36710000
H       -4.36200000       4.91080000       1.00290000
