25
Properties=species:S:1:pos:R:3 gdb_62554=T pbc="F F F"
C        1.63190000       1.90410000      -0.17680000
C        0.82880000       0.66980000      -0.56430000
C        0.14550000       0.88340000      -1.90960000
C        1.30190000      -0.74830000      -0.27330000
C        1.46300000      -1.83550000      -1.30280000
C        2.06290000      -0.79380000       1.06170000
C        0.81480000      -0.20940000       1.78840000
C        0.06010000      -0.16710000       0.44970000
C       -1.40820000      -0.49180000       0.36920000
H        2.14630000       1.80970000       0.78020000
H        2.39160000       2.12150000      -0.93730000
H        0.97810000       2.78230000      -0.11230000
H        0.88940000       1.08660000      -2.68890000
H       -0.44720000       0.02920000      -2.24000000
H       -0.52530000       1.74960000      -1.86510000
H        2.46840000      -1.80740000      -1.74300000
H        1.33770000      -2.82560000      -0.84840000
H        0.74700000      -1.75710000      -2.12410000
H        2.27470000      -1.81990000       1.37480000
H        2.99610000      -0.22370000       1.11970000
H        0.37230000      -0.92880000       2.48300000
H        0.93640000       0.74100000       2.31880000
H       -2.00550000       0.28650000       0.86200000
H       -1.77180000      -0.57870000      -0.65720000
H       -1.62760000      -1.43760000       0.87880000
