19
Properties=species:S:1:pos:R:3 gdb_61480=T pbc="F F F"
C        1.34680000       0.32370000       1.03310000
C        0.20360000       0.17910000       0.01570000
N        0.76680000      -0.30780000      -1.25270000
C       -0.17920000      -0.46420000      -2.35880000
C       -0.80760000       0.83410000      -2.90980000
C        0.50080000      -1.18780000      -3.44660000
N        1.03100000      -1.72560000      -4.32080000
C       -0.82260000      -0.74530000       0.50590000
C       -1.67090000      -1.48740000       0.92320000
H        1.84330000      -0.63820000       1.17790000
H        2.08290000       1.04950000       0.67150000
H        0.96050000       0.67580000       1.99210000
H       -0.27590000       1.16890000      -0.09080000
H        1.52960000       0.30110000      -1.53300000
H       -0.98240000      -1.11520000      -1.99290000
H       -0.03230000       1.51220000      -3.27910000
H       -1.49000000       0.61330000      -3.73520000
H       -1.37560000       1.34110000      -2.12570000
H       -2.41670000      -2.14690000       1.29390000
