18
Properties=species:S:1:pos:R:3 gdb_22111=T pbc="F F F"
N       -0.08280000       1.24590000      -0.26170000
C       -0.22090000      -0.15230000      -0.48650000
N        1.04170000      -0.80420000      -0.40360000
H        1.68990000      -0.41810000      -1.08470000
H        0.94770000      -1.79360000      -0.60780000
C       -1.40270000      -0.85460000       0.26130000
C       -2.00250000      -1.10970000      -1.10500000
C       -3.20590000      -1.75660000      -1.70810000
O       -2.95450000      -2.20020000      -3.02310000
N       -1.04750000      -0.51820000      -1.77550000
O       -0.82240000      -0.30420000      -2.99720000
H        0.59870000       1.65050000      -0.89720000
H       -0.96340000       1.72500000      -0.41680000
H       -1.10110000      -1.73760000       0.83360000
H       -1.95920000      -0.18340000       0.92310000
H       -3.50290000      -2.62550000      -1.10610000
H       -4.05900000      -1.05190000      -1.66870000
H       -2.34500000      -1.56100000      -3.42960000
