17
Properties=species:S:1:pos:R:3 gdb_53478=T pbc="F F F"
C        0.10340000       0.89440000      -1.22770000
C       -0.03030000      -0.28870000      -0.39000000
C       -0.12760000      -1.26370000       0.30990000
C       -0.28370000      -2.44190000       1.15220000
C       -1.64090000      -3.14060000       0.98180000
O       -2.30070000      -3.47540000       1.93480000
C       -2.10110000      -3.43420000      -0.44300000
C       -2.62440000      -4.85750000      -0.57590000
O       -2.40580000      -5.55920000      -1.52710000
H        0.95370000       0.80370000      -1.91230000
H       -0.79510000       1.05520000      -1.83330000
H        0.25860000       1.79280000      -0.62060000
H        0.49000000      -3.18590000       0.90680000
H       -0.17470000      -2.20260000       2.21440000
H       -2.94820000      -2.76210000      -0.64190000
H       -1.33630000      -3.23780000      -1.19570000
H       -3.23310000      -5.19820000       0.28610000
