15
Properties=species:S:1:pos:R:3 gdb_14038=T pbc="F F F"
C        0.11350000       1.59210000      -0.01250000
O        1.47150000       1.46870000       0.45410000
C        1.42310000       0.03090000       0.36810000
C       -0.06650000       0.06130000      -0.02720000
C       -1.13330000      -0.61620000       0.86470000
N       -1.90610000      -1.48440000      -0.03690000
C       -1.38720000      -1.32760000      -1.18020000
O       -0.33520000      -0.48300000      -1.33550000
H       -0.52000000       2.14330000       0.69370000
H        0.04870000       2.05180000      -1.00600000
H        2.07790000      -0.36740000      -0.41620000
H        1.65590000      -0.45070000       1.32610000
H       -0.68220000      -1.21400000       1.66430000
H       -1.79670000       0.11450000       1.34030000
H       -1.70520000      -1.81730000      -2.09370000
