21
Properties=species:S:1:pos:R:3 gdb_87554=T pbc="F F F"
C       -0.13830000       1.56430000      -0.05750000
C        0.05520000       0.05450000      -0.02020000
C        1.11040000      -0.59570000      -0.93670000
C        2.51210000      -0.23560000      -0.52560000
C        1.77140000      -1.27940000       0.26490000
C        0.77620000      -0.60480000       1.18410000
C        1.00390000      -0.02920000       2.56280000
C        0.07450000      -1.20510000       2.35110000
O       -1.31110000      -1.01260000       2.40220000
H        0.80490000       2.10110000       0.08480000
H       -0.56110000       1.87710000      -1.01860000
H       -0.82980000       1.88540000       0.72890000
H       -0.91190000      -0.43980000      -0.15520000
H        0.90110000      -1.01560000      -1.91330000
H        3.29220000      -0.61300000      -1.17970000
H        2.73810000       0.72880000      -0.07780000
H        2.12370000      -2.30000000       0.36020000
H        1.95650000      -0.20090000       3.05500000
H        0.53940000       0.92750000       2.78200000
H        0.41340000      -2.18270000       2.69840000
H       -1.56060000      -0.88710000       3.32370000
