19
Properties=species:S:1:pos:R:3 gdb_79200=T pbc="F F F"
C       -0.24860000       1.59850000      -0.10910000
C        0.11210000       0.12680000      -0.02260000
C        1.43450000      -0.56470000      -0.33930000
C        2.77360000       0.10670000       0.02620000
C        3.24290000      -0.73260000       1.25060000
C        2.01870000       0.03090000       1.82240000
O        2.38600000       1.15350000       0.97120000
C        0.84610000      -0.63320000       1.05790000
O        0.34660000      -1.82640000       1.58030000
H       -0.47080000       1.86630000      -1.14860000
H       -1.15470000       1.79700000       0.47580000
H        0.54830000       2.24180000       0.25330000
H       -0.69660000      -0.50890000      -0.38630000
H        1.44010000      -1.42470000      -0.99910000
H        3.44110000       0.44790000      -0.76480000
H        3.19880000      -1.82250000       1.19410000
H        4.18810000      -0.37690000       1.66470000
H        1.89290000       0.28200000       2.87610000
H       -0.36590000      -1.60940000       2.19130000
