13
Properties=species:S:1:pos:R:3 gdb_130475=T pbc="F F F"
O       -0.02050000       1.28360000       0.00940000
C        1.11100000       1.98620000       0.00200000
C        2.32820000       1.38430000      -0.01320000
N        3.58320000       1.92500000      -0.02260000
C        4.38400000       0.85940000      -0.03620000
C        3.70080000      -0.39710000      -0.03620000
C        2.36150000      -0.06590000      -0.02120000
C        1.10830000      -0.72020000      -0.01240000
N       -0.04660000      -0.11540000       0.00220000
H        0.92450000       3.05420000       0.00950000
H        5.46060000       0.98880000      -0.04610000
H        4.14930000      -1.37930000      -0.04580000
H        1.00980000      -1.80280000      -0.01720000
