14
Properties=species:S:1:pos:R:3 gdb_27500=T pbc="F F F"
N        0.07390000       1.38280000       0.16850000
C       -0.03490000       0.01330000       0.05220000
C       -1.20800000      -0.67410000       0.03150000
C       -1.21610000      -2.11720000      -0.01390000
O       -2.19360000      -2.83870000      -0.03470000
N        0.07810000      -2.69480000      -0.05070000
C        1.29030000      -2.05020000      -0.01970000
O        2.37080000      -2.59700000      -0.01460000
N        1.16670000      -0.65950000       0.00800000
H        0.84060000       1.81260000      -0.32990000
H       -0.79300000       1.88350000       0.04260000
H       -2.16000000      -0.16330000       0.03510000
H        0.11250000      -3.70430000      -0.07640000
H        2.03720000      -0.16940000       0.14550000
