15
Properties=species:S:1:pos:R:3 gdb_42192=T pbc="F F F"
O        0.21220000       0.42280000       1.25580000
C       -0.00370000       1.33560000       0.48090000
C        1.01330000       1.84780000      -0.41710000
C        1.87640000       2.26100000      -1.14660000
C       -1.33350000       1.97880000       0.39230000
C       -2.36740000       1.92810000       1.48390000
C       -2.70110000       1.32760000       0.15030000
C       -2.86790000       2.43140000      -0.88920000
O       -1.59700000       3.03860000      -0.52280000
H        2.63980000       2.62640000      -1.78970000
H       -2.15290000       1.21050000       2.26760000
H       -2.81300000       2.86870000       1.79510000
H       -2.91990000       0.27780000       0.01240000
H       -2.83470000       2.07100000      -1.92250000
H       -3.70810000       3.12260000      -0.75910000
