19
Properties=species:S:1:pos:R:3 gdb_98969=T pbc="F F F"
C        0.04560000       1.65100000       0.04200000
C       -0.12790000       0.13480000       0.02720000
C       -1.57460000      -0.31240000      -0.01090000
N       -2.53630000       0.50960000      -0.02910000
N       -1.69100000      -1.73000000      -0.02290000
C       -2.84130000      -2.46830000      -0.05600000
O       -3.96700000      -1.99830000      -0.08060000
C       -2.65400000      -3.98860000      -0.06120000
O       -3.89230000      -4.62680000      -0.09660000
H        1.10780000       1.91010000       0.06930000
H       -0.40390000       2.10180000      -0.84530000
H       -0.44610000       2.08950000       0.91280000
H        0.39020000      -0.30120000      -0.83930000
H        0.34790000      -0.31350000       0.91150000
H       -3.43410000       0.02630000      -0.05420000
H       -0.82500000      -2.24910000      -0.00500000
H       -2.03800000      -4.26430000      -0.93310000
H       -2.08260000      -4.27560000       0.83710000
H       -4.54600000      -3.90790000      -0.10760000
