14
Properties=species:S:1:pos:R:3 gdb_5154=T pbc="F F F"
C       -0.05200000      -1.21380000       0.30810000
C       -0.00640000      -0.03370000       0.09200000
C        0.03470000       1.40560000      -0.15490000
N        1.37290000       1.97270000      -0.06480000
C        2.18500000       2.00610000       1.04960000
C        3.32520000       2.65050000       0.65030000
N        3.23970000       3.01460000      -0.67420000
C        2.06210000       2.59210000      -1.06860000
H       -0.08680000      -2.25950000       0.49170000
H       -0.34520000       1.62580000      -1.15790000
H       -0.62780000       1.92060000       0.55190000
H        1.87770000       1.56770000       1.98440000
H        4.20190000       2.87320000       1.23930000
H        1.64340000       2.70070000      -2.05890000
