21
Properties=species:S:1:pos:R:3 gdb_110218=T pbc="F F F"
C        0.09540000       1.35850000      -0.44580000
C       -0.04880000       0.01570000       0.28040000
C       -1.42620000      -0.59840000       0.13640000
C       -1.97960000      -1.24080000      -1.12660000
O       -3.18440000      -0.89640000      -1.71030000
C       -0.90680000      -2.08580000      -1.80590000
O       -0.62320000      -2.77070000      -0.55600000
C       -1.70860000      -2.08650000       0.09830000
C       -2.54700000      -2.87050000       1.05210000
H        1.09850000       1.77610000      -0.31420000
H       -0.07930000       1.24690000      -1.52190000
H       -0.62260000       2.09570000      -0.06900000
H        0.69790000      -0.69600000      -0.08610000
H        0.16600000       0.15220000       1.34790000
H       -2.22510000      -0.06790000       0.65560000
H       -3.14770000       0.03310000      -1.96010000
H       -1.32810000      -2.77920000      -2.54260000
H       -0.02270000      -1.58790000      -2.22190000
H       -1.97020000      -3.14550000       1.94240000
H       -3.40800000      -2.27840000       1.37470000
H       -2.91090000      -3.79050000       0.58430000
