15
Properties=species:S:1:pos:R:3 gdb_6337=T pbc="F F F"
C       -0.22080000       1.49730000       0.01130000
C        0.16130000       0.02370000       0.00130000
O        1.29710000      -0.37050000      -0.00970000
N       -0.96040000      -0.82270000       0.00650000
C       -0.98140000      -2.22630000      -0.00020000
O       -0.01040000      -2.92740000      -0.01340000
C       -2.42160000      -2.75960000       0.01200000
O       -2.37680000      -4.15810000      -0.00280000
H        0.69180000       2.09180000       0.00590000
H       -0.82380000       1.75160000      -0.86710000
H       -0.80790000       1.74360000       0.90280000
H       -1.85930000      -0.36300000       0.01620000
H       -2.92520000      -2.35940000       0.90960000
H       -2.94770000      -2.34160000      -0.86450000
H       -3.28020000      -4.48700000       0.01530000
