17
Properties=species:S:1:pos:R:3 gdb_55434=T pbc="F F F"
N        0.02380000       1.31970000       0.21640000
C        0.06450000      -0.02650000       0.09350000
O        1.07450000      -0.70580000       0.04380000
N       -1.19690000      -0.65890000       0.05460000
C       -1.25330000      -2.10990000      -0.11550000
C       -2.73960000      -2.40380000       0.13510000
N       -3.35600000      -1.13440000      -0.24830000
C       -2.45960000      -0.08690000      -0.06570000
N       -2.68670000       1.17340000      -0.03540000
H        0.90400000       1.80020000       0.15720000
H       -0.87030000       1.79910000       0.14080000
H       -0.94920000      -2.39210000      -1.13000000
H       -0.58550000      -2.60680000       0.58730000
H       -3.10880000      -3.22890000      -0.47880000
H       -2.92080000      -2.64670000       1.19160000
H       -4.30890000      -0.95810000       0.03070000
H       -3.67540000       1.38020000      -0.14050000
