19
Properties=species:S:1:pos:R:3 gdb_90417=T pbc="F F F"
C        0.39350000       1.56240000      -0.18240000
C        0.14460000       0.07450000       0.01340000
C        0.88310000      -0.96340000      -0.88720000
C        1.22540000      -1.82470000       0.35640000
C        2.66520000      -1.61950000       0.90420000
O        3.75100000      -1.56000000       0.02150000
C        2.17550000      -0.31900000       1.55240000
O        2.76920000       0.64650000       1.94990000
C        0.70330000      -0.65380000       1.28310000
H        1.45820000       1.80630000      -0.12980000
H        0.01940000       1.88490000      -1.16040000
H       -0.11890000       2.15460000       0.58340000
H       -0.93200000      -0.12140000      -0.02400000
H        0.25940000      -1.45140000      -1.63800000
H        1.77850000      -0.57790000      -1.38310000
H        0.82570000      -2.83610000       0.39670000
H        2.83920000      -2.36070000       1.70460000
H        4.25710000      -0.77080000       0.24980000
H        0.04740000      -0.76400000       2.14760000
