21
Properties=species:S:1:pos:R:3 gdb_80977=T pbc="F F F"
C        0.00800000       1.53360000       0.06080000
C       -0.01000000       0.01850000      -0.01870000
C        0.29920000      -0.70740000      -1.36790000
C       -0.64360000      -1.84590000      -0.88620000
C        0.09350000      -2.79440000       0.07430000
C        0.86710000      -1.99680000       1.09970000
C        0.81940000      -0.66230000       1.05730000
C       -1.38460000      -0.73720000      -0.07480000
O       -2.08230000      -1.04000000       1.09900000
H        1.02830000       1.92680000      -0.01880000
H       -0.58640000       1.97710000      -0.74440000
H       -0.40830000       1.87970000       1.01400000
H       -0.12070000      -0.16880000      -2.22250000
H        1.34380000      -0.95810000      -1.56580000
H       -1.21440000      -2.39810000      -1.63610000
H       -0.62850000      -3.45510000       0.57440000
H        0.77020000      -3.45730000      -0.48180000
H        1.45210000      -2.52670000       1.84640000
H        1.35380000      -0.04590000       1.77560000
H       -2.08380000      -0.19620000      -0.71960000
H       -1.42900000      -1.33460000       1.74690000
