23
Properties=species:S:1:pos:R:3 gdb_95406=T pbc="F F F"
C        0.20360000       1.59000000       0.02760000
C       -0.07470000       0.07490000      -0.03960000
C        0.45590000      -0.50430000      -1.35720000
C        0.18610000      -2.00330000      -1.57120000
C        1.09790000      -2.92780000      -0.81130000
C        1.50730000      -2.79950000       0.46050000
C        2.43740000      -3.82960000       1.06370000
C        1.09680000      -1.74230000       1.39570000
C        0.43680000      -0.58910000       1.21260000
H        1.28100000       1.78890000       0.03060000
H       -0.23370000       2.10650000      -0.83280000
H       -0.21950000       2.03130000       0.93570000
H       -1.17070000      -0.04320000      -0.03970000
H       -0.00520000       0.05830000      -2.17790000
H        1.53550000      -0.32240000      -1.42440000
H       -0.86390000      -2.22180000      -1.32360000
H        0.28430000      -2.22780000      -2.63930000
H        1.46370000      -3.78830000      -1.36780000
H        3.36830000      -3.36680000       1.41460000
H        1.97990000      -4.31100000       1.93750000
H        2.69740000      -4.60980000       0.34420000
H        1.37380000      -1.95750000       2.42750000
H        0.23890000      -0.01000000       2.11460000
