23
Properties=species:S:1:pos:R:3 gdb_101182=T pbc="F F F"
C       -1.40220000       0.17620000      -2.23550000
O       -1.58030000      -0.84980000      -1.28980000
C       -1.29920000      -0.48050000       0.05920000
C       -2.40470000       0.39730000       0.65690000
C       -1.17240000      -1.79440000       0.81560000
C        0.07720000      -2.71910000       0.66350000
C        0.87180000      -1.73460000       1.57290000
C       -0.52980000      -1.88520000       2.23730000
C       -0.39060000      -3.41400000       1.97590000
H       -1.54260000      -0.26960000      -3.22390000
H       -2.12760000       0.99540000      -2.12120000
H       -0.38930000       0.60740000      -2.18490000
H       -0.35320000       0.08160000       0.07850000
H       -2.17250000       0.64590000       1.69730000
H       -2.51740000       1.33780000       0.10990000
H       -3.36340000      -0.13080000       0.63280000
H       -2.12460000      -2.33110000       0.72510000
H        0.42360000      -3.20200000      -0.25060000
H        1.71220000      -2.16410000       2.12550000
H        1.14160000      -0.76130000       1.16080000
H       -0.88190000      -1.40680000       3.15330000
H       -1.31810000      -3.99110000       1.92450000
H        0.37800000      -3.93640000       2.55170000
