27
Properties=species:S:1:pos:R:3 gdb_117718=T pbc="F F F"
C       -0.24110000       1.50620000      -0.07950000
C       -0.04980000      -0.01070000       0.01030000
C        0.74810000      -0.56970000      -1.17330000
C        0.86360000      -2.10660000      -1.23610000
C        1.64900000      -2.49750000      -2.49980000
C        1.55560000      -2.67170000       0.01640000
O       -0.49930000      -2.54980000      -1.32980000
C       -0.76250000      -3.93870000      -1.35880000
C       -2.26850000      -4.11830000      -1.48020000
H        0.72140000       2.03050000      -0.09560000
H       -0.78160000       1.78400000      -0.99140000
H       -0.81160000       1.88680000       0.77370000
H        0.45670000      -0.25240000       0.95270000
H       -1.02350000      -0.50960000       0.04250000
H        0.27190000      -0.24180000      -2.10610000
H        1.76030000      -0.14510000      -1.17270000
H        2.64390000      -2.04150000      -2.48690000
H        1.78720000      -3.57980000      -2.57780000
H        1.12350000      -2.15120000      -3.39480000
H        0.94390000      -2.51390000       0.90830000
H        1.75050000      -3.74390000      -0.07800000
H        2.52000000      -2.17720000       0.16960000
H       -0.25860000      -4.42250000      -2.20940000
H       -0.39990000      -4.43120000      -0.44430000
H       -2.52620000      -5.18150000      -1.50850000
H       -2.77870000      -3.65910000      -0.62850000
H       -2.63840000      -3.64520000      -2.39430000
