18
Properties=species:S:1:pos:R:3 gdb_46940=T pbc="F F F"
O        0.06280000      -0.06560000      -0.03810000
C       -0.03680000       1.14220000      -0.04050000
C       -1.39790000       1.82530000      -0.13630000
C       -1.36160000       3.22500000      -0.77590000
C       -0.15670000       4.02770000      -0.28240000
C        0.22590000       3.87800000       1.21680000
N        1.50150000       3.15240000       0.88620000
C        1.20290000       3.36950000      -0.56860000
C        1.20190000       1.99100000      -0.01470000
H       -2.06400000       1.14260000      -0.67020000
H       -1.79260000       1.89120000       0.88620000
H       -1.30300000       3.13540000      -1.86800000
H       -2.29450000       3.75570000      -0.55540000
H       -0.21170000       5.06710000      -0.61060000
H        0.49380000       4.82800000       1.68350000
H       -0.45140000       3.34010000       1.88570000
H        1.95520000       3.71110000      -1.27260000
H        2.09840000       1.39600000      -0.15540000
