19
Properties=species:S:1:pos:R:3 gdb_32674=T pbc="F F F"
C       -0.00530000       1.56180000       0.20140000
C        0.33740000       0.06970000       0.22980000
C        0.68330000      -0.49180000      -1.13960000
C        0.78200000      -2.06020000      -1.28560000
C       -0.38070000      -1.92530000      -2.25710000
C       -1.33630000      -2.26470000      -3.18150000
N       -1.98080000      -1.10940000      -3.58110000
C       -1.42950000      -0.09910000      -2.93070000
N       -0.45350000      -0.57090000      -2.10620000
H        0.82630000       2.15440000      -0.19500000
H       -0.88300000       1.75140000      -0.42500000
H       -0.22970000       1.93090000       1.20600000
H        1.19800000      -0.10590000       0.88780000
H       -0.50100000      -0.50240000       0.64470000
H        1.53560000       0.03950000      -1.57640000
H        1.72240000      -2.42070000      -1.70940000
H        0.57500000      -2.60470000      -0.36030000
H       -1.61070000      -3.22610000      -3.58530000
H       -1.70530000       0.93940000      -3.02320000
