22
Properties=species:S:1:pos:R:3 gdb_107468=T pbc="F F F"
C        0.17880000       1.59530000       0.16220000
C       -0.03050000       0.08590000      -0.02290000
C        0.63560000      -0.48620000      -1.25310000
C        1.68000000      -1.53450000      -1.21590000
N        2.07900000      -0.18400000      -1.64970000
C        1.62570000      -0.09530000      -3.08170000
C        0.13020000      -0.30830000      -2.69710000
C       -0.65640000      -1.44250000      -3.34320000
O       -0.62040000       0.89780000      -2.76100000
H        1.24730000       1.82570000       0.20080000
H       -0.25820000       2.15360000      -0.66720000
H       -0.28190000       1.93500000       1.09530000
H        0.34290000      -0.44360000       0.86130000
H       -1.10300000      -0.13860000      -0.08410000
H        2.07060000      -1.80010000      -0.23750000
H        1.69960000      -2.34830000      -1.93860000
H        1.80090000       0.90990000      -3.47000000
H        2.09560000      -0.83700000      -3.73840000
H       -0.12920000      -2.39790000      -3.28590000
H       -1.63070000      -1.55090000      -2.85650000
H       -0.83010000      -1.22900000      -4.40610000
H       -0.87070000       1.04300000      -3.67970000
