21
Properties=species:S:1:pos:R:3 gdb_119099=T pbc="F F F"
O       -0.13400000       1.49180000       0.10300000
C        0.05170000       0.08570000       0.04430000
C       -1.32600000      -0.54340000      -0.14740000
C       -1.37170000      -2.07070000      -0.03910000
C       -0.49850000      -2.74900000      -1.08870000
O       -0.66030000      -4.15500000      -0.98220000
C       -1.23330000      -2.61850000       1.40750000
O       -2.63120000      -2.95830000       1.46320000
C       -2.81900000      -2.61940000       0.07510000
H        0.72780000       1.90610000       0.20430000
H        0.72230000      -0.18580000      -0.78560000
H        0.51160000      -0.29460000       0.97160000
H       -1.99030000      -0.11790000       0.61340000
H       -1.72480000      -0.22700000      -1.11980000
H       -0.79010000      -2.38920000      -2.08970000
H        0.55540000      -2.46800000      -0.93530000
H       -0.08690000      -4.57720000      -1.62780000
H       -0.59380000      -3.50430000       1.49640000
H       -0.95780000      -1.88700000       2.17790000
H       -3.61890000      -1.88140000      -0.06500000
H       -3.01870000      -3.50470000      -0.53780000
