13
Properties=species:S:1:pos:R:3 gdb_7877=T pbc="F F F"
C       -0.03360000       1.49440000       0.05000000
C       -0.00820000       0.01020000      -0.04690000
C       -0.03820000      -0.81000000      -1.10370000
C        0.01060000      -2.23130000      -0.63950000
O        0.00170000      -3.24270000      -1.29500000
N        0.07080000      -2.15940000       0.75690000
C        0.06350000      -0.84280000       1.20120000
O        0.10570000      -0.46540000       2.34620000
H        0.85950000       1.85850000       0.56950000
H       -0.08710000       1.96120000      -0.93530000
H       -0.89040000       1.82350000       0.64800000
H       -0.08930000      -0.55950000      -2.15410000
H        0.11220000      -2.96340000       1.36240000
