17
Properties=species:S:1:pos:R:3 gdb_55120=T pbc="F F F"
C        0.34110000       1.44440000      -0.00760000
C       -0.03700000      -0.02320000       0.09720000
O       -0.36590000      -0.54680000       1.13540000
C       -0.03490000      -0.76650000      -1.22490000
O       -0.08980000      -2.20460000      -1.14340000
C       -1.27410000      -2.23970000      -1.94380000
C       -2.40860000      -1.53640000      -1.24400000
C       -1.37290000      -0.73800000      -2.00460000
O       -1.63400000       0.12260000      -3.04570000
H        1.42820000       1.53260000      -0.12240000
H       -0.10860000       1.90620000      -0.89380000
H        0.03450000       1.97370000       0.89530000
H        0.79630000      -0.44680000      -1.86600000
H       -1.37230000      -3.02460000      -2.68290000
H       -3.35930000      -1.60470000      -1.76550000
H       -2.45330000      -1.52560000      -0.15920000
H       -2.32990000       0.73110000      -2.77500000
