22
Properties=species:S:1:pos:R:3 gdb_15009=T pbc="F F F"
O       -0.02920000       1.44510000      -0.00900000
C        0.03010000       0.02470000       0.00930000
C       -1.39460000      -0.52100000      -0.01080000
C       -2.14890000      -0.10290000      -1.28390000
C       -3.57950000      -0.65860000      -1.30610000
C       -3.59180000      -2.18470000      -1.13960000
C       -2.83660000      -2.61280000       0.12650000
C       -1.40730000      -2.05010000       0.14970000
H        0.86900000       1.78350000      -0.06180000
H        0.58320000      -0.36000000      -0.86450000
H        0.55180000      -0.33580000       0.91100000
H       -1.91560000      -0.08090000       0.85270000
H       -2.15220000       0.98750000      -1.36480000
H       -1.59960000      -0.48150000      -2.15940000
H       -4.15750000      -0.20150000      -0.49070000
H       -4.08150000      -0.37340000      -2.23780000
H       -4.62170000      -2.55870000      -1.11080000
H       -3.11690000      -2.64710000      -2.01650000
H       -3.37920000      -2.25010000       1.01060000
H       -2.81160000      -3.70570000       0.20500000
H       -0.82760000      -2.50240000      -0.66860000
H       -0.90380000      -2.33680000       1.08130000
