19
Properties=species:S:1:pos:R:3 gdb_28456=T pbc="F F F"
C       -0.02620000       1.53160000      -0.02200000
C       -0.01120000       0.02780000      -0.00370000
C       -0.06710000      -0.71990000      -1.17300000
N       -0.05650000      -2.05460000      -1.20630000
C        0.01280000      -2.66970000      -0.02300000
C        0.02780000      -4.17360000      -0.01380000
N        0.07090000      -2.05590000       1.16740000
C        0.05960000      -0.72160000       1.18450000
C        0.12560000      -0.05610000       2.53240000
H        0.87580000       1.95280000       0.43710000
H       -0.08500000       1.90700000      -1.04740000
H       -0.88130000       1.93640000       0.53180000
H       -0.12360000      -0.21560000      -2.13750000
H        0.94070000      -4.54160000       0.46560000
H       -0.81410000      -4.55880000       0.57040000
H       -0.02880000      -4.55850000      -1.03220000
H        1.00400000       0.59530000       2.61000000
H       -0.75210000       0.57800000       2.70450000
H        0.17500000      -0.81500000       3.31360000
