19
Properties=species:S:1:pos:R:3 gdb_1747=T pbc="F F F"
C        0.04540000       1.58320000       0.25600000
C       -0.02530000       0.08090000       0.04590000
C       -1.35350000      -0.45580000      -0.46410000
C       -1.72620000       0.02200000      -1.86500000
O       -2.93610000      -0.62810000      -2.22990000
C        1.23440000      -0.62580000      -0.40290000
C        0.74010000      -0.78760000       1.01580000
H        1.01410000       1.87580000       0.67320000
H       -0.08650000       2.13540000      -0.68120000
H       -0.73200000       1.92080000       0.95200000
H       -1.32640000      -1.55150000      -0.48470000
H       -2.16180000      -0.17740000       0.22460000
H       -1.84930000       1.11610000      -1.87690000
H       -0.91280000      -0.22280000      -2.56700000
H       -3.19130000      -0.31830000      -3.10360000
H        1.13770000      -1.47310000      -1.07410000
H        2.12690000      -0.03140000      -0.56840000
H        1.29740000      -0.29920000       1.80860000
H        0.30980000      -1.74200000       1.30080000
