15
Properties=species:S:1:pos:R:3 gdb_1870=T pbc="F F F"
C        0.12140000       1.52670000       0.05390000
C       -0.06290000       0.00880000      -0.04430000
C        0.71610000      -0.62190000      -1.22870000
N        1.97690000      -0.97240000      -0.59530000
C        1.81040000      -1.16840000       0.77110000
O        2.61890000      -1.63440000       1.54150000
N        0.52930000      -0.71950000       1.07450000
H        1.18420000       1.78740000       0.06490000
H       -0.35220000       2.02940000      -0.79600000
H       -0.33730000       1.91550000       0.96910000
H       -1.12950000      -0.22470000      -0.12700000
H        0.18400000      -1.50140000      -1.61810000
H        0.85360000       0.09030000      -2.04790000
H        2.65000000      -1.55980000      -1.06050000
H        0.37090000      -0.41850000       2.02370000
