20
Properties=species:S:1:pos:R:3 gdb_102518=T pbc="F F F"
C       -0.06000000       1.42770000       0.04120000
N       -0.00930000      -0.02740000      -0.05940000
C        0.72340000      -0.54410000      -1.21360000
C        2.23980000      -0.58550000      -0.99200000
O        2.45920000      -1.38480000       0.16600000
C        0.14230000      -1.96160000      -1.53640000
N       -1.31140000      -1.99880000      -1.70060000
C        0.78800000      -2.52100000      -2.73050000
N        1.31230000      -2.92050000      -3.67980000
H        0.92400000       1.92510000       0.05360000
H       -0.62780000       1.83390000      -0.80290000
H       -0.58640000       1.70490000       0.95890000
H        0.41480000      -0.41690000       0.77760000
H        0.51470000       0.10570000      -2.07210000
H        2.74120000      -1.00690000      -1.87370000
H        2.61860000       0.43710000      -0.84440000
H        3.40560000      -1.47520000       0.30600000
H        0.40620000      -2.61120000      -0.69300000
H       -1.68860000      -1.44120000      -0.93560000
H       -1.56580000      -1.51460000      -2.55840000
