21
Properties=species:S:1:pos:R:3 gdb_111953=T pbc="F F F"
C        0.00140000       1.69080000       0.24460000
C        0.04010000       0.17080000       0.06980000
C       -1.35310000      -0.46950000      -0.07970000
C       -2.07920000      -0.22350000      -1.37920000
C       -2.48210000      -1.34890000      -1.97210000
C       -2.11570000      -2.58920000      -1.19690000
C       -1.35140000      -3.67300000      -1.97080000
C       -1.28890000      -2.00890000      -0.03350000
O       -0.65670000      -2.65590000       0.76180000
H        1.01080000       2.09550000       0.36700000
H       -0.44980000       2.18910000      -0.62010000
H       -0.57980000       1.97170000       1.13000000
H        0.64750000      -0.08870000      -0.80610000
H        0.52380000      -0.29680000       0.93410000
H       -1.96380000      -0.14050000       0.77690000
H       -2.25230000       0.77380000      -1.76780000
H       -3.02470000      -1.39600000      -2.91020000
H       -3.01340000      -3.05330000      -0.75900000
H       -0.46830000      -3.25300000      -2.46250000
H       -1.01980000      -4.45530000      -1.28320000
H       -1.98430000      -4.12670000      -2.73930000
