23
Properties=species:S:1:pos:R:3 gdb_117691=T pbc="F F F"
C       -0.13160000       1.63590000      -0.15050000
C       -0.01440000       0.11670000       0.00200000
C        0.77620000      -0.53090000      -1.14010000
C        0.77480000      -2.07620000      -1.14400000
C        1.37630000      -2.66500000       0.13290000
O       -0.56340000      -2.57080000      -1.19540000
C        1.56750000      -2.55740000      -2.39510000
C        1.57720000      -4.00130000      -2.58730000
C        1.59270000      -5.19180000      -2.75220000
H        0.85490000       2.11290000      -0.16860000
H       -0.64310000       1.90440000      -1.08190000
H       -0.69730000       2.07530000       0.67700000
H        0.46400000      -0.11290000       0.96110000
H       -1.01080000      -0.33660000       0.03870000
H        0.35490000      -0.19190000      -2.09890000
H        1.81420000      -0.17220000      -1.12550000
H        0.75700000      -2.41350000       0.99620000
H        1.42620000      -3.75320000       0.05360000
H        2.38580000      -2.27780000       0.30120000
H       -0.95520000      -2.29430000      -2.03120000
H        1.13620000      -2.07610000      -3.28440000
H        2.59830000      -2.18720000      -2.32570000
H        1.60120000      -6.24370000      -2.89550000
