21
Properties=species:S:1:pos:R:3 gdb_84492=T pbc="F F F"
C       -0.74390000       1.14140000      -0.06170000
C        0.00850000      -0.18440000      -0.10980000
C        1.07110000      -0.27710000      -1.25180000
O        1.64220000       0.97590000      -1.63740000
C        2.11690000      -1.20020000      -0.67080000
C        1.97670000      -1.32130000       0.65150000
C        0.78230000      -0.59790000       1.15790000
C        0.88700000       0.25410000       2.41190000
C        0.08550000      -1.01810000       2.43010000
H       -0.06200000       1.98480000       0.07170000
H       -1.28820000       1.30820000      -0.99610000
H       -1.47460000       1.15490000       0.75450000
H       -0.71390000      -0.98800000      -0.30600000
H        0.61610000      -0.65550000      -2.17280000
H        2.24630000       1.23940000      -0.93420000
H        2.92090000      -1.61480000      -1.26740000
H        2.64140000      -1.87030000       1.31170000
H        1.83800000       0.27280000       2.93420000
H        0.35050000       1.19630000       2.43200000
H       -0.99690000      -0.93610000       2.45630000
H        0.47860000      -1.87140000       2.97350000
