21
Properties=species:S:1:pos:R:3 gdb_66558=T pbc="F F F"
C       -0.02710000       1.44530000       0.02830000
C        0.00040000      -0.05090000      -0.04750000
C       -0.94260000      -0.96780000       0.73400000
C        0.55850000      -1.06440000       0.93200000
C        0.55570000      -2.08810000      -0.23980000
C       -1.01720000      -2.18120000      -0.22120000
C       -1.07470000      -1.61640000      -1.66020000
C        0.27780000      -0.94500000      -1.29570000
C        1.27670000      -0.47610000      -2.32200000
H        0.92290000       1.88560000      -0.29650000
H       -0.82120000       1.86640000      -0.60060000
H       -0.20950000       1.78000000       1.05550000
H       -1.69530000      -0.58270000       1.41060000
H        1.16810000      -0.94050000       1.81790000
H        1.22860000      -2.92640000      -0.40700000
H       -1.56880000      -3.06700000       0.09180000
H       -0.94130000      -2.40270000      -2.41180000
H       -1.91990000      -0.97760000      -1.93950000
H        0.89840000       0.38640000      -2.88420000
H        2.21780000      -0.17350000      -1.84750000
H        1.50610000      -1.26700000      -3.04440000
