18
Properties=species:S:1:pos:R:3 gdb_85572=T pbc="F F F"
C       -0.62800000       1.26150000       0.03380000
C        0.13500000      -0.06400000      -0.00060000
N        1.02840000      -0.11650000      -1.15150000
C        2.07620000      -0.98660000      -1.31590000
O        2.64120000      -1.13260000      -2.38120000
C        2.48350000      -1.70870000      -0.03810000
C        2.31440000      -0.81090000       1.19570000
C        0.89270000      -0.29760000       1.32020000
O        0.34760000      -0.09900000       2.37850000
H        0.06750000       2.10590000       0.05460000
H       -1.27060000       1.36180000      -0.84620000
H       -1.24910000       1.29580000       0.92990000
H       -0.60560000      -0.88180000      -0.04630000
H        0.71040000       0.31700000      -2.00740000
H        1.86560000      -2.61070000       0.06250000
H        3.51520000      -2.04070000      -0.16170000
H        2.58610000      -1.31250000       2.12720000
H        2.96830000       0.06690000       1.09760000
