17
Properties=species:S:1:pos:R:3 gdb_28055=T pbc="F F F"
C        0.01170000       1.51160000       0.19990000
C        0.02780000       0.02870000       0.03580000
N        0.17490000      -0.62290000      -1.09850000
C        0.13610000      -1.96590000      -0.78010000
C        0.23570000      -3.01720000      -1.84180000
C       -1.04440000      -3.10230000      -2.66150000
O       -1.60880000      -4.12820000      -2.94040000
C       -0.04330000      -2.12360000       0.56880000
N       -0.10710000      -0.84360000       1.07880000
H        0.82490000       1.86030000       0.84690000
H        0.13250000       1.97110000      -0.78170000
H       -0.93100000       1.86460000       0.63350000
H        1.04450000      -2.75040000      -2.53600000
H        0.44910000      -4.00510000      -1.42680000
H       -1.43250000      -2.11360000      -2.99110000
H       -0.12540000      -2.99580000       1.19580000
H       -0.22040000      -0.59950000       2.04840000
