20
Properties=species:S:1:pos:R:3 gdb_40200=T pbc="F F F"
C       -0.09650000       1.47370000       0.09160000
N        1.19450000       0.75530000       0.12880000
C       -0.06130000      -0.00140000      -0.00320000
C       -0.41550000      -0.93770000       1.14460000
O       -0.20230000      -2.25200000       0.63680000
C       -0.51820000      -2.24780000      -0.74270000
C       -2.03300000      -2.25600000      -1.10930000
C       -1.90100000      -0.81550000      -1.68320000
C       -0.39880000      -0.77780000      -1.26360000
H       -0.37550000       1.95780000       1.02440000
H       -0.35900000       2.03710000      -0.80070000
H        1.65500000       0.83130000      -0.77570000
H        0.23090000      -0.79110000       2.01220000
H       -1.46490000      -0.80110000       1.45320000
H        0.08650000      -3.02040000      -1.22190000
H       -2.32100000      -3.01980000      -1.83520000
H       -2.68150000      -2.35190000      -0.23520000
H       -2.04920000      -0.75250000      -2.76340000
H       -2.52880000      -0.05620000      -1.20940000
H        0.30910000      -0.58140000      -2.07230000
