16
Properties=species:S:1:pos:R:3 gdb_57836=T pbc="F F F"
C        0.30900000       1.23320000       0.14040000
N        0.13500000      -0.18810000      -0.12400000
C        0.52240000      -1.08020000       0.95750000
C       -0.35540000      -0.56290000      -1.33260000
O       -0.63080000       0.20610000      -2.24130000
C       -0.66750000      -2.04930000      -1.59060000
O       -1.19920000      -2.77360000      -0.77650000
C       -0.38280000      -2.47660000      -2.94290000
C       -0.10470000      -2.89570000      -4.03630000
H        1.35850000       1.45140000       0.37070000
H        0.00350000       1.79150000      -0.74270000
H       -0.30260000       1.53720000       0.99840000
H       -0.13480000      -0.94200000       1.82490000
H        0.46440000      -2.12010000       0.65110000
H        1.54910000      -0.85180000       1.26810000
H        0.13560000      -3.25390000      -5.00790000
