21
Properties=species:S:1:pos:R:3 gdb_59738=T pbc="F F F"
C       -0.21020000       1.52420000      -0.08130000
C       -0.07900000      -0.00160000       0.00740000
C        0.90570000      -0.41490000       1.10950000
C       -1.46990000      -0.64560000       0.23980000
O       -2.46800000      -0.15140000      -0.64750000
C       -2.57920000      -1.03500000      -1.76700000
C       -2.36260000      -2.43560000      -1.19590000
C       -1.46210000      -2.16550000       0.01130000
O       -0.86070000      -2.98570000       0.65470000
H        0.76090000       1.97910000      -0.30170000
H       -0.91910000       1.81780000      -0.85790000
H       -0.56470000       1.93800000       0.87030000
H        0.30510000      -0.36860000      -0.95560000
H        0.57640000      -0.02980000       2.08210000
H        0.99280000      -1.49980000       1.19290000
H        1.89750000       0.00210000       0.90810000
H       -1.79730000      -0.42360000       1.26350000
H       -3.56670000      -0.87930000      -2.20640000
H       -1.82270000      -0.79790000      -2.53010000
H       -3.30010000      -2.86670000      -0.82600000
H       -1.90490000      -3.15610000      -1.87650000
