15
Properties=species:S:1:pos:R:3 gdb_124253=T pbc="F F F"
C        0.12170000       1.47160000       0.00680000
C        0.02300000      -0.03560000       0.03690000
O        1.04390000      -0.73660000       0.07330000
C       -1.27170000      -0.67050000       0.02520000
C       -1.36590000      -2.06880000       0.05560000
O       -0.39240000      -2.95800000       0.09540000
N       -2.67030000      -2.37620000       0.03690000
N       -3.47370000      -1.25830000      -0.00520000
C       -2.63040000      -0.24580000      -0.01190000
H        1.17020000       1.77050000      -0.00020000
H       -0.38200000       1.87010000      -0.88030000
H       -0.37690000       1.90170000       0.88240000
H        0.42700000      -2.39250000       0.09820000
H       -3.08750000      -3.29170000       0.04960000
H       -3.01600000       0.76330000      -0.04290000
