14
Properties=species:S:1:pos:R:3 gdb_23488=T pbc="F F F"
O       -0.17850000       1.30920000      -0.10050000
N       -0.01840000      -0.08570000      -0.08770000
C       -1.13660000      -0.67770000      -0.05380000
C       -1.44900000      -2.11500000       0.14770000
C       -2.80010000      -1.72760000       0.67790000
C       -2.61520000      -0.28500000       0.08470000
N       -3.17750000      -0.34730000      -1.28490000
C       -3.14360000      -1.58140000      -1.58220000
N       -2.74070000      -2.51050000      -0.55390000
H        0.73410000       1.61780000      -0.11250000
H       -0.77580000      -2.92140000       0.40260000
H       -3.34720000      -2.07320000       1.54650000
H       -2.87460000       0.61510000       0.63320000
H       -3.41070000      -1.98380000      -2.55320000
