17
Properties=species:S:1:pos:R:3 gdb_69178=T pbc="F F F"
C       -0.09470000       1.54340000       0.10470000
C        0.11770000       0.06980000       0.00180000
O       -0.77860000      -0.81970000       0.67730000
C        0.62920000      -0.91190000       0.99820000
C        1.24800000      -1.72860000      -0.14430000
O        1.98720000      -2.66660000      -0.21500000
C        0.68560000      -0.74340000      -1.16050000
C        0.14350000      -1.00920000      -2.53440000
C        1.45060000      -0.28320000      -2.37610000
H        0.81810000       2.08560000      -0.15960000
H       -0.89160000       1.86890000      -0.57330000
H       -0.38520000       1.81380000       1.12280000
H        0.92140000      -0.79870000       2.03570000
H        0.16630000      -2.03790000      -2.87820000
H       -0.72580000      -0.44240000      -2.85080000
H        1.47450000       0.78200000      -2.58160000
H        2.36910000      -0.81450000      -2.60260000
