17
Properties=species:S:1:pos:R:3 gdb_101996=T pbc="F F F"
C        0.06230000       1.38820000       0.33860000
C        0.30260000      -0.11130000       0.15440000
C        0.65540000      -0.49160000      -1.31760000
C        2.03560000       0.08080000      -1.66200000
O        2.20660000       1.06650000      -2.32440000
C        0.65900000      -1.93400000      -1.50000000
C        0.68240000      -3.13380000      -1.64320000
C        0.72870000      -4.56460000      -1.81150000
O       -0.23230000      -5.25420000      -2.06270000
H        0.93450000       1.98080000       0.04810000
H       -0.78460000       1.72820000      -0.26590000
H       -0.16240000       1.60880000       1.38590000
H        1.11170000      -0.45850000       0.80810000
H       -0.58860000      -0.67900000       0.43830000
H       -0.07240000      -0.02430000      -1.99100000
H        2.88120000      -0.48470000      -1.21110000
H        1.74020000      -5.00230000      -1.68980000
