21
Properties=species:S:1:pos:R:3 gdb_82047=T pbc="F F F"
C       -0.01720000       1.55540000      -0.43160000
C        0.05130000       0.05730000      -0.17500000
C        1.21630000      -0.71950000      -0.81340000
O        2.43200000      -0.23130000      -0.22740000
C        1.67210000      -1.21110000       0.49360000
C        0.55100000      -0.46230000       1.22680000
C        0.92940000       0.41730000       2.44190000
C        0.39270000      -0.70520000       3.37340000
C       -0.36130000      -1.30520000       2.15460000
H        0.95600000       2.01840000      -0.24720000
H       -0.30410000       1.76390000      -1.46820000
H       -0.75530000       2.03760000       0.21840000
H       -0.90320000      -0.42650000      -0.41380000
H        1.29060000      -1.16010000      -1.80170000
H        2.18060000      -2.12860000       0.77160000
H        1.97820000       0.70990000       2.53030000
H        0.31130000       1.31910000       2.49590000
H        1.19170000      -1.36360000       3.72480000
H       -0.20750000      -0.40280000       4.23440000
H       -1.40130000      -0.96660000       2.10840000
H       -0.34650000      -2.39160000       2.02390000
