15
Properties=species:S:1:pos:R:3 gdb_57837=T pbc="F F F"
C        0.11490000       1.22650000      -0.32820000
N       -0.11580000      -0.20130000      -0.14090000
C        0.99100000      -1.07250000      -0.51130000
C       -1.31530000      -0.59680000       0.33920000
O       -2.25240000       0.14000000       0.61000000
C       -1.56510000      -2.07770000       0.65930000
O       -0.77010000      -2.85900000       1.11500000
C       -2.98200000      -2.45080000       0.49190000
N       -4.05480000      -2.84560000       0.31880000
H        0.95630000       1.55600000       0.29210000
H        0.35430000       1.43410000      -1.37710000
H       -0.78480000       1.76780000      -0.04210000
H        1.85120000      -0.89520000       0.14490000
H        0.71380000      -2.11930000      -0.43470000
H        1.29530000      -0.85360000      -1.54110000
