14
Properties=species:S:1:pos:R:3 gdb_24831=T pbc="F F F"
N       -0.05620000       1.12930000       0.87200000
C       -0.01450000       0.11240000       0.09650000
C        1.23870000      -0.48470000      -0.36530000
C        1.53880000      -1.52230000      -1.15800000
O        0.75820000      -2.40320000      -1.82540000
C       -0.59000000      -2.40600000      -1.82040000
C       -1.48180000      -1.61250000      -1.21070000
C       -1.37270000      -0.44580000      -0.32190000
O       -2.38800000       0.07810000       0.08290000
H        0.89040000       1.44170000       1.10520000
H        2.12520000       0.01880000       0.01380000
H        2.57550000      -1.77080000      -1.35290000
H       -0.93150000      -3.22550000      -2.44320000
H       -2.51790000      -1.87190000      -1.40290000
