16
Properties=species:S:1:pos:R:3 gdb_69403=T pbc="F F F"
O        0.06670000       1.38720000      -0.12860000
C        0.04060000       0.00330000      -0.02210000
C       -0.38970000      -0.77020000      -1.23470000
C       -1.24320000      -0.84590000       0.01790000
N       -0.97910000      -1.89690000       0.96650000
C       -1.88100000      -2.83740000       1.39360000
O       -1.64000000      -3.70150000       2.20620000
C        0.33320000      -1.77450000       1.44670000
C        0.94830000      -0.70080000       0.93010000
H       -0.03590000       1.75390000       0.75740000
H       -0.83130000      -0.17960000      -2.03000000
H        0.19030000      -1.62970000      -1.55140000
H       -2.24040000      -0.42440000       0.01690000
H       -2.86310000      -2.71410000       0.89960000
H        0.69330000      -2.53300000       2.12450000
H        1.95840000      -0.38200000       1.14260000
