17
Properties=species:S:1:pos:R:3 gdb_91685=T pbc="F F F"
O       -0.15880000       1.40390000      -0.00120000
C       -0.03860000      -0.00660000       0.01000000
C        0.42010000      -0.60870000       1.38870000
N       -0.77870000      -1.37930000       1.83270000
C       -1.12910000      -2.05900000       0.51460000
C       -1.43440000      -0.63970000      -0.01600000
C       -1.86420000      -0.36910000       1.46100000
C       -3.20130000      -0.81270000       1.82890000
N       -4.27590000      -1.13400000       2.10740000
H        0.72270000       1.78760000       0.03500000
H        0.57550000      -0.35400000      -0.83160000
H        1.27320000      -1.28680000       1.31120000
H        0.65380000       0.18200000       2.10660000
H       -0.31210000      -2.62880000       0.06410000
H       -2.01090000      -2.68910000       0.63510000
H       -2.07300000      -0.42320000      -0.87150000
H       -1.69340000       0.63930000       1.84350000
