20
Properties=species:S:1:pos:R:3 gdb_122259=T pbc="F F F"
O        0.03030000       1.38470000      -0.34290000
C        0.03350000       0.03350000       0.08700000
C       -1.36810000      -0.52420000      -0.12560000
C       -1.48070000      -1.99970000       0.27150000
C       -2.88260000      -2.57180000       0.08610000
C       -3.31410000      -3.04900000      -1.29370000
C       -3.05180000      -4.05440000      -0.21280000
C       -3.90130000      -1.96490000       0.90830000
N       -4.70720000      -1.47260000       1.57720000
H        0.90120000       1.75690000      -0.17710000
H        0.76450000      -0.56520000      -0.48280000
H        0.30820000      -0.04820000       1.15150000
H       -2.07620000       0.07700000       0.45550000
H       -1.63860000      -0.39740000      -1.18040000
H       -0.79040000      -2.60330000      -0.33060000
H       -1.17840000      -2.13160000       1.31800000
H       -4.33980000      -2.87160000      -1.59320000
H       -2.58400000      -2.93790000      -2.08790000
H       -2.14160000      -4.64220000      -0.25810000
H       -3.89880000      -4.56380000       0.23060000
