18
Properties=species:S:1:pos:R:3 gdb_27213=T pbc="F F F"
C       -0.01620000       1.51290000       0.07770000
C        0.00980000       0.02480000      -0.04700000
C        0.00100000      -0.81280000      -1.13200000
C       -0.03500000      -0.81240000      -2.63680000
C       -0.01220000      -2.30560000      -2.94220000
C        0.03000000      -3.04780000      -1.81880000
C        0.03990000      -2.16300000      -0.66220000
C        0.07230000      -2.13200000       0.71030000
N        0.05300000      -0.79740000       1.06890000
H        0.87920000       1.90480000       0.57710000
H       -0.06360000       1.96780000      -0.91430000
H       -0.88670000       1.86760000       0.64440000
H       -0.93280000      -0.33390000      -3.05270000
H        0.82170000      -0.29850000      -3.09470000
H       -0.02870000      -2.69200000      -3.95380000
H        0.05290000      -4.13000000      -1.78060000
H        0.10570000      -2.90570000       1.46000000
H        0.06840000      -0.46260000       2.01670000
