18
Properties=species:S:1:pos:R:3 gdb_10489=T pbc="F F F"
O        0.18700000      -1.15120000       1.62150000
C        0.04580000      -0.52900000       0.34830000
C       -1.41120000      -0.57770000      -0.04320000
C       -2.34110000       0.19540000       0.89170000
C       -2.10820000       1.63740000       0.87380000
C       -1.89880000       2.82120000       0.84710000
C       -1.74450000      -0.62580000      -1.51170000
C       -1.93350000      -1.85390000      -0.65370000
H        1.04180000      -0.90170000       1.98380000
H        0.37900000       0.51870000       0.38360000
H        0.64880000      -1.04770000      -0.41370000
H       -3.38400000      -0.00650000       0.61920000
H       -2.20240000      -0.18440000       1.91080000
H       -1.72650000       3.86860000       0.82990000
H       -2.62660000      -0.08990000      -1.84520000
H       -0.92790000      -0.61840000      -2.22610000
H       -1.23920000      -2.67830000      -0.77380000
H       -2.94610000      -2.15950000      -0.41250000
