17
Properties=species:S:1:pos:R:3 gdb_32496=T pbc="F F F"
C        0.02440000       1.53010000      -0.18990000
C       -0.03130000       0.01140000       0.05070000
C       -1.42570000      -0.54290000       0.04580000
C       -2.14950000      -0.98870000       1.12300000
N       -3.38940000      -1.39690000       0.68220000
C       -3.48670000      -1.22650000      -0.66230000
C       -2.28480000      -0.69620000      -1.09920000
C       -1.96310000      -0.37240000      -2.43920000
N       -1.67930000      -0.10010000      -3.52980000
H        1.05920000       1.88570000      -0.17150000
H       -0.40310000       1.78890000      -1.16270000
H       -0.53660000       2.06870000       0.58030000
H        0.56380000      -0.49340000      -0.72000000
H        0.44140000      -0.22590000       1.01040000
H       -1.88200000      -1.05210000       2.16550000
H       -4.11550000      -1.77330000       1.26670000
H       -4.37570000      -1.48850000      -1.21150000
