19
Properties=species:S:1:pos:R:3 gdb_69730=T pbc="F F F"
C       -0.08480000       1.51550000       0.10230000
C        0.08540000       0.03000000      -0.01120000
O       -0.56550000      -0.79110000       0.98620000
C        0.87100000      -0.84920000       0.85530000
C        1.35500000      -1.91790000      -0.11600000
C        0.17810000      -2.22440000      -1.10000000
C        1.20150000      -2.44040000      -2.24110000
C        1.71180000      -1.20120000      -1.47520000
C        0.22670000      -0.68460000      -1.35780000
H        0.68420000       2.03920000      -0.47620000
H       -1.06150000       1.82690000      -0.28520000
H       -0.01700000       1.83410000       1.14540000
H        1.44310000      -0.52170000       1.71810000
H        1.98280000      -2.73570000       0.23990000
H       -0.71170000      -2.80870000      -0.87200000
H        1.81760000      -3.34240000      -2.18410000
H        0.84130000      -2.27610000      -3.26070000
H        2.59980000      -0.60080000      -1.68540000
H       -0.26670000      -0.27170000      -2.23940000
