23
Properties=species:S:1:pos:R:3 gdb_113397=T pbc="F F F"
C        0.00970000       1.50670000      -0.35570000
C       -0.03770000       0.10480000       0.26240000
C       -1.42060000      -0.51650000       0.22140000
C       -1.90190000      -1.21620000      -1.05590000
C       -1.62090000      -1.99080000       0.18630000
C       -0.69310000      -3.18900000       0.48150000
C       -1.23780000      -3.13570000       1.94240000
C       -2.48670000      -2.95090000       1.02610000
C       -1.91300000      -4.10040000       0.14160000
H        1.02020000       1.92600000      -0.31660000
H       -0.30710000       1.48450000      -1.40370000
H       -0.65730000       2.19450000       0.17580000
H        0.66580000      -0.55300000      -0.26360000
H        0.31260000       0.15200000       1.30220000
H       -2.18360000       0.05920000       0.74450000
H       -2.93160000      -1.06840000      -1.36790000
H       -1.19560000      -1.28150000      -1.87960000
H        0.34190000      -3.32520000       0.16480000
H       -1.18850000      -4.06840000       2.51170000
H       -0.94080000      -2.27560000       2.54720000
H       -3.52240000      -2.80680000       1.33820000
H       -2.23290000      -4.12190000      -0.90270000
H       -1.90910000      -5.09940000       0.58720000
