16
Properties=species:S:1:pos:R:3 gdb_126409=T pbc="F F F"
C        0.37490000       1.47450000       0.23030000
C       -0.19760000       0.11870000      -0.21700000
C        0.60110000      -0.52080000      -1.31300000
N        0.17570000      -0.48360000      -2.58030000
N        1.11890000      -1.10860000      -3.29140000
C        2.14990000      -1.55710000      -2.51890000
C        1.84250000      -1.18750000      -1.22010000
C        3.25470000      -2.25350000      -3.06090000
N        4.15360000      -2.82210000      -3.51950000
H        1.39940000       1.36990000       0.60130000
H        0.39130000       2.18290000      -0.60310000
H       -0.23240000       1.90410000       1.03250000
H       -0.24140000      -0.56090000       0.64180000
H       -1.22270000       0.24880000      -0.57590000
H        1.01000000      -1.21540000      -4.28690000
H        2.43640000      -1.38180000      -0.34220000
