23
Properties=species:S:1:pos:R:3 gdb_100784=T pbc="F F F"
C       -0.02370000       1.46640000      -0.49890000
C        0.01220000       0.00680000      -0.03780000
C       -1.38560000      -0.60960000       0.10450000
O       -2.11980000      -0.49660000      -1.11580000
C       -1.37390000      -2.06940000       0.60550000
C       -0.75680000      -2.22530000       2.00480000
C       -2.78510000      -2.62620000       0.61220000
C       -3.31950000      -3.47130000      -0.45590000
O       -2.90540000      -4.04180000       0.78900000
H        0.98710000       1.85960000      -0.64240000
H       -0.57060000       1.56260000      -1.43990000
H       -0.52620000       2.09880000       0.24130000
H        0.58920000      -0.59860000      -0.75310000
H        0.54160000      -0.06540000       0.91810000
H       -1.96410000      -0.00600000       0.81840000
H       -1.64840000      -1.00410000      -1.78640000
H       -0.78440000      -2.67220000      -0.10190000
H       -1.25660000      -1.57260000       2.73040000
H       -0.87300000      -3.25760000       2.34520000
H        0.30910000      -1.98510000       2.01370000
H       -3.50060000      -2.04790000       1.20180000
H       -4.39070000      -3.49340000      -0.65090000
H       -2.69060000      -3.71640000      -1.31140000
