19
Properties=species:S:1:pos:R:3 gdb_79675=T pbc="F F F"
C       -0.21760000       1.58780000      -0.04720000
C        0.10200000       0.09590000       0.05140000
C        1.33830000      -0.65450000      -0.30490000
C        2.69710000      -0.12150000       0.19770000
C        2.65100000       1.16740000       0.97510000
C        2.18620000      -0.09890000       1.63230000
C        0.81160000      -0.64090000       1.17900000
C        0.20570000      -1.79390000       1.83510000
O        0.60820000      -2.29460000       2.86310000
H        0.43770000       2.10350000      -0.75320000
H       -1.24330000       1.71380000      -0.40530000
H       -0.14900000       2.09090000       0.92020000
H       -0.75640000      -0.50950000      -0.24260000
H        1.29310000      -1.51970000      -0.95550000
H        3.62610000      -0.54070000      -0.16460000
H        3.63060000       1.48840000       1.31870000
H        1.99700000       1.98930000       0.72570000
H        2.65600000      -0.51510000       2.51210000
H       -0.67830000      -2.21090000       1.29670000
