16
Properties=species:S:1:pos:R:3 gdb_55038=T pbc="F F F"
N        0.57710000       0.05860000      -0.29990000
C       -0.57740000       0.77590000      -0.22730000
O       -0.66500000       1.97350000      -0.40840000
C       -1.80070000      -0.04820000       0.11260000
O       -1.63880000      -1.45970000       0.27360000
C       -2.00480000      -0.69060000       1.42760000
C       -1.02760000      -0.60570000       2.54880000
C       -1.44480000      -0.06950000       3.85160000
O       -1.28940000      -1.47310000       3.65660000
H        1.40860000       0.52300000      -0.62680000
H        0.53390000      -0.94750000      -0.29370000
H       -2.68460000       0.26960000      -0.43760000
H       -3.03370000      -0.84810000       1.75240000
H        0.01870000      -0.53230000       2.26120000
H       -0.70390000       0.40610000       4.49170000
H       -2.46900000       0.27400000       3.99100000
