22
Properties=species:S:1:pos:R:3 gdb_106145=T pbc="F F F"
C       -0.28980000       1.45740000      -0.04530000
C        0.10790000      -0.02320000       0.03390000
C        0.75400000      -0.52340000      -1.21330000
C        0.30340000      -0.82270000      -2.62070000
C        1.33690000       0.15950000      -3.13520000
N        2.08110000       0.02280000      -1.82100000
C        2.54130000      -1.41910000      -1.89550000
C        1.09420000      -1.87030000      -1.79300000
C        0.54260000      -3.22430000      -1.45890000
H        0.58660000       2.07610000      -0.25910000
H       -1.02450000       1.62500000      -0.83950000
H       -0.72670000       1.79800000       0.89830000
H        0.79210000      -0.17330000       0.87970000
H       -0.77590000      -0.64110000       0.23920000
H       -0.69900000      -1.03580000      -2.97420000
H        1.93370000      -0.08800000      -4.02120000
H        0.94900000       1.17740000      -3.22990000
H        3.13250000      -1.66300000      -2.78710000
H        3.11920000      -1.66360000      -0.99880000
H        1.02930000      -3.64390000      -0.57090000
H       -0.53290000      -3.17880000      -1.25570000
H        0.69040000      -3.93070000      -2.28430000
