19
Properties=species:S:1:pos:R:3 gdb_98482=T pbc="F F F"
C        0.72720000       0.08730000       0.93240000
O       -0.13270000       0.05440000      -0.19760000
C       -1.29230000      -0.70230000      -0.03290000
C       -1.61490000      -1.67700000      -1.15560000
C       -1.19790000      -2.20170000       0.18180000
C       -2.47200000       0.01450000       0.53750000
O       -3.50110000      -0.56430000       0.83470000
C       -2.40690000       1.52980000       0.67780000
O       -3.62000000       2.03630000       1.14890000
H        1.55950000       0.74370000       0.67030000
H        0.22570000       0.48690000       1.82390000
H        1.11850000      -0.90940000       1.17320000
H       -2.65550000      -1.76420000      -1.44380000
H       -0.88960000      -1.69690000      -1.96030000
H       -0.19970000      -2.61300000       0.27480000
H       -1.95580000      -2.64130000       0.81920000
H       -1.57790000       1.79470000       1.35220000
H       -2.14030000       1.95040000      -0.30500000
H       -4.19120000       1.25850000       1.25840000
