19
Properties=species:S:1:pos:R:3 gdb_93635=T pbc="F F F"
C       -0.30660000       1.52660000       0.04810000
C        0.07970000       0.05010000       0.04720000
C        0.91390000      -0.41420000      -1.16070000
N        1.56520000      -1.67280000      -0.74910000
C        1.48980000      -1.77460000       0.71650000
C        2.79000000      -2.09500000       1.32590000
N        3.79590000      -2.30600000       1.85550000
C        0.97550000      -0.38550000       1.21790000
O        2.01490000       0.55870000       1.34910000
H        0.58420000       2.15830000       0.04020000
H       -0.91130000       1.76710000      -0.83210000
H       -0.89380000       1.78200000       0.93580000
H       -0.82790000      -0.56700000       0.09670000
H        0.31100000      -0.57020000      -2.05950000
H        1.67570000       0.33870000      -1.39520000
H        1.13290000      -2.47690000      -1.18130000
H        0.78150000      -2.54800000       1.04440000
H        0.42170000      -0.50210000       2.15980000
H        2.68610000       0.20710000       1.94600000
