18
Properties=species:S:1:pos:R:3 gdb_47534=T pbc="F F F"
N       -0.01910000       1.35530000      -0.22030000
C       -0.02000000       0.11090000       0.00670000
C       -1.30420000      -0.68480000       0.06830000
C       -1.60370000      -1.24930000       1.45020000
C       -1.96580000      -2.71680000       1.59090000
C       -0.62230000      -2.23100000       2.02880000
O        0.48040000      -2.57890000       1.22940000
C        1.40750000      -1.54050000       1.11770000
O        1.15610000      -0.60630000       0.07270000
H        0.94330000       1.70030000      -0.24890000
H       -2.11360000      -0.02950000      -0.25760000
H       -1.21710000      -1.50420000      -0.65190000
H       -2.06260000      -0.55070000       2.14280000
H       -2.67380000      -3.01490000       2.35580000
H       -2.00140000      -3.30520000       0.68070000
H       -0.39640000      -2.19630000       3.09370000
H        1.49010000      -0.99630000       2.07060000
H        2.36580000      -1.98920000       0.85110000
