19
Properties=species:S:1:pos:R:3 gdb_17060=T pbc="F F F"
C       -0.00750000       1.57430000      -0.13330000
C        0.09410000       0.05510000       0.00570000
N       -1.25700000      -0.52100000       0.01820000
C       -2.04240000      -0.66410000       1.31140000
C       -2.95450000      -1.63110000       0.51070000
C       -1.48020000      -2.01050000       0.19520000
C       -1.22790000      -1.94360000       1.72470000
O        0.10340000      -1.88340000       2.16040000
H        0.98770000       2.02230000      -0.22110000
H       -0.59530000       1.84460000      -1.01510000
H       -0.49440000       2.01850000       0.74230000
H        0.59380000      -0.35760000      -0.88040000
H        0.70910000      -0.20610000       0.87130000
H       -2.33800000       0.19560000       1.91580000
H       -3.55600000      -2.34880000       1.07120000
H       -3.48530000      -1.16660000      -0.31730000
H       -1.10590000      -2.74250000      -0.52270000
H       -1.79510000      -2.67270000       2.32280000
H        0.10110000      -1.75010000       3.11340000
