22
Properties=species:S:1:pos:R:3 gdb_119683=T pbc="F F F"
C        0.10140000       1.58090000      -0.00200000
C        0.19640000       0.05530000      -0.07770000
C        0.54060000      -0.59170000       1.27350000
C        0.62030000      -2.09000000       1.21310000
C       -0.49780000      -3.11300000       1.06400000
N        0.45210000      -4.19440000       1.54160000
C        1.44050000      -4.24610000       0.39060000
C        1.89470000      -2.84490000       0.75740000
C        1.31800000      -3.05450000       2.12910000
H        1.04930000       2.02050000       0.32850000
H       -0.14480000       2.01520000      -0.97590000
H       -0.67190000       1.89540000       0.70780000
H       -0.75430000      -0.35520000      -0.44140000
H        0.95400000      -0.23480000      -0.81620000
H        1.49620000      -0.18890000       1.63630000
H       -0.21280000      -0.29720000       2.01780000
H       -1.28910000      -2.97350000       1.80700000
H       -0.94630000      -3.30280000       0.08130000
H        2.19830000      -5.00600000       0.60010000
H        0.98840000      -4.43770000      -0.58980000
H        2.79380000      -2.30590000       0.48350000
H        1.70720000      -3.00630000       3.13650000
