13
Properties=species:S:1:pos:R:3 gdb_20395=T pbc="F F F"
C        0.04460000       1.35780000      -0.15490000
C        1.49710000       1.89370000       0.15420000
C        2.11350000       0.60540000       0.58670000
C        1.16030000      -0.36090000       0.71220000
O       -0.10150000       0.01720000       0.39760000
N        1.67640000      -1.51430000       1.16650000
N        2.96720000      -1.30650000       1.34290000
N        3.23580000      -0.02070000       1.00170000
H       -0.73690000       1.98150000       0.28230000
H       -0.11490000       1.29080000      -1.23570000
H        1.94280000       2.34760000      -0.73590000
H        1.49490000       2.65190000       0.94650000
H        4.18680000       0.30350000       1.06700000
