21
Properties=species:S:1:pos:R:3 gdb_61558=T pbc="F F F"
C       -0.06770000       1.76970000       0.39740000
C       -0.07470000       0.26840000       0.07380000
C        0.72560000      -0.56820000       1.09050000
N        2.14040000      -0.20910000       1.09150000
C        2.60010000       0.67170000       2.16360000
C        2.93440000      -0.77700000       2.17670000
C       -1.51690000      -0.24370000       0.07630000
N       -1.94780000      -0.79800000      -1.09380000
O       -2.22730000      -0.17280000       1.06250000
H        0.95390000       2.15500000       0.42030000
H       -0.62600000       2.33400000      -0.35650000
H       -0.54140000       1.94700000       1.36690000
H        0.38000000       0.11260000      -0.91180000
H        0.25720000      -0.46520000       2.08340000
H        0.65630000      -1.62650000       0.80980000
H        3.34690000       1.40930000       1.88340000
H        1.86600000       1.01830000       2.88880000
H        2.42280000      -1.39650000       2.91190000
H        3.92900000      -1.11970000       1.90560000
H       -1.37590000      -0.82880000      -1.91860000
H       -2.89570000      -1.13470000      -1.14380000
