16
Properties=species:S:1:pos:R:3 gdb_50941=T pbc="F F F"
O        0.86000000       0.40670000       1.49440000
C        0.39150000       1.07130000       0.59340000
N        1.10000000       1.55890000      -0.45940000
C        2.47950000       1.20230000      -0.68730000
C        2.81660000       1.42830000      -2.15150000
O        2.02720000       1.85860000      -2.95500000
C        3.45570000       1.99490000       0.18060000
C        3.94650000       1.44360000       1.44480000
O        4.76770000       1.44520000       0.26760000
H       -0.67630000       1.35810000       0.54370000
H        0.62180000       1.97420000      -1.24820000
H        2.64660000       0.13910000      -0.46200000
H        3.86190000       1.18530000      -2.42270000
H        3.41090000       3.07690000       0.05140000
H        4.27070000       2.12080000       2.23220000
H        3.57710000       0.47440000       1.76800000
