20
Properties=species:S:1:pos:R:3 gdb_98462=T pbc="F F F"
C       -0.17040000       1.72540000      -0.35510000
C       -0.41200000       0.30060000      -0.84620000
C        0.86080000      -0.50420000      -1.01540000
O        1.95530000      -0.05420000      -0.73910000
C        0.74670000      -1.92080000      -1.53780000
C       -0.57070000      -2.65600000      -1.42870000
O       -0.94420000      -2.85450000      -0.07420000
C        1.71490000      -2.27100000      -2.62590000
N        1.92470000      -2.77450000      -1.27350000
H        0.35170000       1.72280000       0.60480000
H        0.44980000       2.28490000      -1.06030000
H       -1.11930000       2.25460000      -0.23280000
H       -1.05110000      -0.26510000      -0.15540000
H       -0.95010000       0.29550000      -1.80440000
H       -1.38450000      -2.08880000      -1.89020000
H       -0.48450000      -3.61180000      -1.96430000
H       -0.22010000      -3.34120000       0.33730000
H        1.42500000      -3.01310000      -3.36530000
H        2.36120000      -1.47570000      -2.98570000
H        2.61910000      -2.17810000      -0.82080000
