18
Properties=species:S:1:pos:R:3 gdb_53114=T pbc="F F F"
C       -0.07280000       1.52200000      -0.20610000
C       -0.01040000       0.07040000      -0.12350000
C        0.04280000      -1.13280000      -0.07290000
C        0.08780000      -2.58400000       0.01100000
N        0.25060000      -3.19910000       1.36640000
C        0.86280000      -2.43930000       2.43650000
C       -1.17710000      -3.55540000       1.48600000
C       -1.32980000      -3.24120000      -0.00390000
O       -2.15880000      -3.42240000      -0.83760000
H        0.92580000       1.96900000      -0.14920000
H       -0.52600000       1.83990000      -1.15150000
H       -0.67410000       1.94200000       0.60740000
H        0.78900000      -2.99610000      -0.72570000
H        0.34230000      -1.49240000       2.65910000
H        0.87360000      -3.05050000       3.34450000
H        1.89930000      -2.20400000       2.17750000
H       -1.38360000      -4.58130000       1.80970000
H       -1.77850000      -2.86010000       2.09760000
