16
Properties=species:S:1:pos:R:3 gdb_18553=T pbc="F F F"
N       -0.15110000       1.24370000      -0.46790000
C       -0.06960000       0.06720000      -0.04720000
O        1.00430000      -0.62700000       0.47890000
C        0.20910000      -1.84880000       0.64650000
C       -0.14570000      -2.13740000       2.09760000
C       -1.30850000      -1.15110000       2.38420000
N       -2.04020000      -0.98460000       1.11570000
C       -1.04110000      -1.10690000       0.06770000
H        0.74170000       1.73310000      -0.38020000
H        0.66090000      -2.67260000       0.09300000
H       -0.49360000      -3.17440000       2.17650000
H        0.70920000      -2.01310000       2.76720000
H       -1.98210000      -1.48980000       3.17380000
H       -0.90750000      -0.17790000       2.68870000
H       -2.72280000      -1.72770000       1.00970000
H       -1.47030000      -1.43610000      -0.87830000
