18
Properties=species:S:1:pos:R:3 gdb_62483=T pbc="F F F"
C       -0.06730000       1.53890000      -0.00920000
C       -0.02500000      -0.00130000      -0.01790000
C       -1.45050000      -0.58620000      -0.01540000
C        0.78420000      -0.52430000      -1.18970000
N        0.49890000      -0.33600000      -2.40230000
O        1.87950000      -1.23690000      -0.76290000
C        1.96090000      -1.29370000       0.65870000
C        0.75860000      -0.51450000       1.18840000
O        0.49410000      -0.34680000       2.34870000
H        0.93810000       1.97080000      -0.01150000
H       -0.58950000       1.89150000      -0.90150000
H       -0.59000000       1.88730000       0.88550000
H       -1.98210000      -0.24760000      -0.90750000
H       -1.43830000      -1.68030000      -0.02240000
H       -1.98280000      -0.25310000       0.87950000
H        1.18500000      -0.78040000      -3.01460000
H        1.93180000      -2.33550000       0.99740000
H        2.89990000      -0.84450000       1.00150000
