17
Properties=species:S:1:pos:R:3 gdb_82580=T pbc="F F F"
O       -0.05990000       1.40760000       0.04530000
C       -0.07830000       0.01800000      -0.03040000
C       -0.46710000      -0.82060000       1.13660000
O       -1.42910000      -0.08920000       1.91640000
C       -2.38390000      -0.14640000       0.82100000
C       -3.74600000      -0.79070000       1.12470000
O       -4.44190000       0.39110000       0.67990000
C       -3.20390000       1.10950000       0.48830000
C       -1.36260000      -0.79630000      -0.09600000
H       -0.34940000       1.63240000       0.94010000
H        0.72280000      -0.37390000      -0.65110000
H        0.10720000      -1.59090000       1.63790000
H       -4.01220000      -1.67680000       0.53600000
H       -3.89570000      -0.99570000       2.19210000
H       -3.07600000       1.92100000       1.21660000
H       -3.10010000       1.50500000      -0.52710000
H       -1.57180000      -1.54490000      -0.84870000
