16
Properties=species:S:1:pos:R:3 gdb_16377=T pbc="F F F"
O        0.57150000       0.77640000      -0.87780000
C        0.11110000      -0.25920000      -0.05120000
C        0.12420000      -0.09080000       1.50090000
C       -1.26750000      -0.79720000       1.56370000
O       -2.29040000      -0.22070000       2.33910000
C       -1.39360000      -0.53240000       0.06640000
C       -2.48720000       0.15830000      -0.61760000
O       -2.20990000      -1.23320000      -0.84410000
H        0.12340000       1.58740000      -0.61420000
H        0.65150000      -1.15670000      -0.36660000
H        0.95480000      -0.53470000       2.05160000
H        0.01620000       0.96150000       1.78190000
H       -1.16600000      -1.87290000       1.76150000
H       -2.20940000      -0.54160000       3.24240000
H       -3.40340000       0.36960000      -0.07120000
H       -2.26220000       0.81410000      -1.45750000
