17
Properties=species:S:1:pos:R:3 gdb_109207=T pbc="F F F"
O        0.09350000       1.33650000       0.16990000
C        0.01010000      -0.04490000      -0.04910000
C       -1.41750000      -0.51410000      -0.08160000
N       -2.39150000       0.30660000       0.02680000
C       -3.62750000      -0.47420000      -0.05880000
C       -3.16300000      -1.97030000      -0.00370000
N       -1.73480000      -1.85370000      -0.29180000
C       -3.41590000      -2.61920000       1.34650000
O       -2.54600000      -3.07220000       2.04520000
H       -0.82290000       1.65250000       0.19390000
H        0.48830000      -0.32590000      -1.00150000
H        0.54720000      -0.59370000       0.74210000
H       -4.31570000      -0.21350000       0.75310000
H       -4.14270000      -0.25990000      -1.00170000
H       -3.69000000      -2.57280000      -0.75510000
H       -1.15930000      -2.52970000       0.19920000
H       -4.48620000      -2.65550000       1.64920000
