16
Properties=species:S:1:pos:R:3 gdb_124968=T pbc="F F F"
C        0.42740000       1.44720000      -0.05070000
C        0.12220000      -0.01780000      -0.00850000
C       -0.00520000      -0.91000000      -1.03200000
C        0.08360000      -0.81620000      -2.52980000
C        1.27140000      -0.11810000      -3.01480000
C        2.24300000       0.45490000      -3.42770000
O       -0.30470000      -2.13350000      -0.55180000
N       -0.38380000      -2.07660000       0.83460000
C       -0.12990000      -0.82840000       1.13630000
H        1.19390000       1.71120000       0.68510000
H        0.79460000       1.74420000      -1.03510000
H       -0.46020000       2.04940000       0.17580000
H        0.06370000      -1.83720000      -2.92720000
H       -0.81500000      -0.32040000      -2.92210000
H        3.10690000       0.95390000      -3.79170000
H       -0.12970000      -0.53120000       2.17660000
