19
Properties=species:S:1:pos:R:3 gdb_77818=T pbc="F F F"
C       -0.03900000       1.60710000       0.23850000
C        0.04540000       0.10220000       0.11910000
C        1.32960000      -0.67010000      -0.26270000
C        2.64610000      -0.00110000      -0.06270000
O        3.51920000       0.17600000      -0.87450000
C        2.74430000       0.33870000       1.42980000
O        1.55410000      -0.11830000       2.05210000
C        0.71550000      -0.78480000       1.11890000
C        0.08520000      -2.02210000       1.69260000
H        0.75820000       2.01860000       0.86010000
H        0.00880000       2.08630000      -0.74430000
H       -0.98910000       1.89060000       0.70360000
H       -0.82280000      -0.34910000      -0.35630000
H        1.26420000      -1.43150000      -1.03010000
H        3.61960000      -0.16710000       1.85920000
H        2.87500000       1.41820000       1.57590000
H       -0.51050000      -1.76860000       2.57560000
H       -0.57380000      -2.49520000       0.95970000
H        0.85000000      -2.74420000       1.99450000
