20
Properties=species:S:1:pos:R:3 gdb_117969=T pbc="F F F"
C       -0.86640000       1.19370000      -0.60220000
O       -1.01680000      -0.20610000      -0.62030000
C       -0.75370000      -0.80360000       0.62770000
C       -1.00370000      -2.31060000       0.51150000
N       -0.77120000      -2.91610000       1.82300000
C       -2.43230000      -2.53390000       0.01190000
O       -3.40960000      -2.38480000       0.70630000
O       -2.47230000      -2.92840000      -1.26930000
C       -3.78550000      -3.11640000      -1.81460000
H       -1.09250000       1.55990000      -1.60640000
H       -1.55480000       1.66830000       0.11450000
H        0.16110000       1.48950000      -0.33850000
H        0.28640000      -0.63860000       0.94640000
H       -1.41530000      -0.38970000       1.40740000
H       -0.30250000      -2.72870000      -0.21450000
H       -1.58420000      -2.72460000       2.40530000
H       -0.72770000      -3.92650000       1.73040000
H       -4.33260000      -3.87530000      -1.24970000
H       -4.34930000      -2.18080000      -1.78370000
H       -3.63610000      -3.43860000      -2.84500000
