21
Properties=species:S:1:pos:R:3 gdb_96431=T pbc="F F F"
C       -0.09130000       1.52430000      -0.13570000
C        0.03040000       0.01060000      -0.02340000
O        0.69540000      -0.45390000      -1.19310000
C        0.71150000      -1.86970000      -1.28930000
C        1.46610000      -2.50710000      -0.12140000
C        0.89000000      -2.01240000       1.21370000
C        0.77170000      -0.46610000       1.24480000
C        2.14940000       0.16060000       1.36790000
O        2.65350000       0.47000000       2.41910000
H        0.89370000       1.99890000      -0.18250000
H       -0.63730000       1.79080000      -1.04410000
H       -0.62750000       1.92960000       0.72760000
H       -0.98300000      -0.42870000       0.00590000
H       -0.32370000      -2.25230000      -1.31950000
H        1.18410000      -2.10480000      -2.24710000
H        1.39510000      -3.59850000      -0.18720000
H        2.52890000      -2.25030000      -0.19910000
H       -0.11670000      -2.42860000       1.35000000
H        1.49340000      -2.35800000       2.05880000
H        0.21020000      -0.17290000       2.13830000
H        2.69440000       0.30140000       0.40960000
