17
Properties=species:S:1:pos:R:3 gdb_114589=T pbc="F F F"
O        0.01980000       1.37810000      -0.25650000
C        0.00980000       0.00780000       0.12210000
C       -1.41650000      -0.48590000      -0.01280000
C       -2.03390000      -0.59620000      -1.45210000
C       -2.22380000      -2.09660000      -1.21010000
O       -0.93940000      -2.65350000      -0.93260000
C       -1.63960000      -2.00830000       0.15230000
C       -1.88580000      -2.73580000       1.34910000
C       -2.09060000      -3.30360000       2.38940000
H        0.93230000       1.68120000      -0.26100000
H        0.66200000      -0.59600000      -0.52400000
H        0.34940000      -0.12400000       1.16230000
H       -2.07560000       0.07930000       0.65100000
H       -2.97100000      -0.04530000      -1.55030000
H       -1.37160000      -0.34470000      -2.28300000
H       -2.98270000      -2.77110000      -1.59000000
H       -2.27360000      -3.81800000       3.30030000
