17
Properties=species:S:1:pos:R:3 gdb_64763=T pbc="F F F"
C        0.07400000       1.47410000       0.08690000
C       -0.00500000      -0.05350000       0.01750000
C       -1.47680000      -0.54190000      -0.00060000
C       -2.26780000      -0.07130000       1.13420000
N       -2.91020000       0.31120000       2.01480000
C        0.77410000      -0.63700000      -1.20360000
O        1.80030000      -1.46600000      -0.61550000
C        1.61550000      -1.36890000       0.72190000
N        0.68240000      -0.64830000       1.18390000
H        1.11890000       1.79590000       0.09610000
H       -0.42010000       1.92980000      -0.77840000
H       -0.40570000       1.84150000       0.99670000
H       -1.96300000      -0.20200000      -0.92320000
H       -1.49470000      -1.63680000      -0.00780000
H        0.16110000      -1.26530000      -1.85730000
H        1.25950000       0.13600000      -1.80490000
H        2.31810000      -1.94580000       1.31290000
