20
Properties=species:S:1:pos:R:3 gdb_64709=T pbc="F F F"
C       -0.00950000       1.64810000       0.15610000
C        0.03430000       0.12610000       0.05920000
C       -1.37680000      -0.45940000      -0.18090000
C       -1.96320000      -0.05710000      -1.45400000
C       -2.42040000       0.27710000      -2.51470000
C        1.08600000      -0.53250000      -0.88450000
N        1.64290000      -1.39260000       0.22190000
C        2.19300000      -0.44420000       1.20600000
C        0.73270000      -0.64680000       1.18730000
H        0.98470000       2.07000000       0.32640000
H       -0.40800000       2.08200000      -0.76640000
H       -0.65510000       1.96840000       0.98230000
H       -1.32030000      -1.55440000      -0.13810000
H       -2.03620000      -0.15220000       0.64230000
H       -2.83760000       0.56630000      -3.44730000
H        0.65110000      -1.14840000      -1.67390000
H        1.83020000       0.13820000      -1.32740000
H        2.75130000      -0.93210000       1.99960000
H        2.62970000       0.48820000       0.85500000
H        0.21280000      -1.16470000       1.98970000
