13
Properties=species:S:1:pos:R:3 gdb_132095=T pbc="F F F"
C        0.09100000       1.50660000       0.03610000
C       -0.03430000       0.02470000      -0.00190000
C       -1.16670000      -0.69210000      -0.19620000
F       -2.33260000      -0.07350000      -0.38010000
N       -1.20770000      -2.04190000      -0.21900000
C       -0.10010000      -2.68660000      -0.04500000
C        1.19580000      -2.04140000       0.17530000
O        2.25550000      -2.57680000       0.34280000
O        1.12770000      -0.64640000       0.18070000
H        0.78120000       1.85170000      -0.74110000
H       -0.88360000       1.96960000      -0.11830000
H        0.49570000       1.83130000       1.00070000
H       -0.10420000      -3.77240000      -0.05860000
