20
Properties=species:S:1:pos:R:3 gdb_10232=T pbc="F F F"
C       -0.17690000       1.32200000       0.07970000
O        0.02490000      -0.07660000       0.04900000
C        0.71610000      -0.60860000       1.18660000
C       -0.30200000      -0.85760000       2.30790000
O       -1.35880000      -1.68350000       1.86010000
C        1.41450000      -1.89160000       0.73840000
C        2.42630000      -1.67660000      -0.38810000
O        3.11590000      -2.86960000      -0.73200000
H        0.77960000       1.86290000       0.12670000
H       -0.69030000       1.59240000      -0.84620000
H       -0.79640000       1.64210000       0.92930000
H        1.46660000       0.12100000       1.53250000
H        0.18030000      -1.36740000       3.14860000
H       -0.68250000       0.10610000       2.68460000
H       -1.61220000      -1.32990000       0.99770000
H        1.92980000      -2.33250000       1.59940000
H        0.64810000      -2.61030000       0.42410000
H        1.92520000      -1.23280000      -1.25880000
H        3.20300000      -0.97290000      -0.06580000
H        2.46930000      -3.48760000      -1.08770000
