12
Properties=species:S:1:pos:R:3 gdb_12960=T pbc="F F F"
O        0.02170000       1.39030000      -0.01920000
C       -0.07210000       0.01370000      -0.01660000
C       -0.47880000      -0.78030000       1.16700000
O       -1.45970000       0.01040000       1.89520000
C       -2.39000000      -0.13660000       0.84810000
O       -3.52800000       0.18780000       0.85180000
C       -1.39020000      -0.81270000      -0.05920000
O       -1.64070000      -1.81680000      -0.95280000
H       -0.39360000       1.71140000       0.79250000
H        0.67980000      -0.44560000      -0.65460000
H        0.03390000      -1.56150000       1.71110000
H       -1.72410000      -1.43630000      -1.83480000
