21
Properties=species:S:1:pos:R:3 gdb_58535=T pbc="F F F"
C       -0.33550000       1.42170000       0.15800000
C        0.08470000      -0.04640000       0.00600000
C        0.78100000      -0.31770000      -1.33560000
C        0.93580000      -0.51860000       1.20290000
C        2.30160000       0.14110000       1.35070000
O        0.16860000      -0.42550000       2.45040000
C        0.13400000      -1.84780000       2.66400000
C        0.94230000      -2.04880000       1.37980000
O        1.38130000      -2.97750000       0.77070000
H        0.51990000       2.09870000       0.06090000
H       -1.05550000       1.69070000      -0.62150000
H       -0.80270000       1.59340000       1.13110000
H       -0.83120000      -0.65240000       0.03690000
H        1.64840000       0.33590000      -1.47540000
H        1.12120000      -1.35490000      -1.40770000
H        0.09100000      -0.12690000      -2.16340000
H        2.19670000       1.22360000       1.46280000
H        2.81320000      -0.24120000       2.23810000
H        2.92850000      -0.06260000       0.47860000
H        0.63830000      -2.15920000       3.58790000
H       -0.88090000      -2.26580000       2.65080000
