15
Properties=species:S:1:pos:R:3 gdb_45419=T pbc="F F F"
O       -0.01220000      -0.02390000      -0.02550000
C        0.00880000       1.17180000       0.00790000
O       -1.12990000       1.91530000       0.09000000
C       -0.86520000       3.34600000       0.05560000
C       -0.00480000       3.63470000       1.29970000
O        1.19100000       2.86870000       1.20380000
C        1.23980000       2.08290000      -0.01120000
C        1.09780000       2.99510000      -1.20850000
C       -0.04020000       3.68760000      -1.16150000
H       -1.83810000       3.83260000       0.09730000
H        0.23730000       4.70210000       1.36490000
H       -0.55010000       3.33140000       2.20170000
H        2.15500000       1.49810000       0.02790000
H        1.85830000       3.06670000      -1.97570000
H       -0.35220000       4.44850000      -1.86590000
