17
Properties=species:S:1:pos:R:3 gdb_17866=T pbc="F F F"
O        0.22070000       1.36260000      -0.06700000
C        0.04470000      -0.02550000      -0.01380000
C       -0.41510000      -0.74620000       1.25720000
C       -1.28800000      -0.66190000       0.04530000
C       -2.72330000      -0.18870000      -0.21500000
C       -2.44680000      -0.68310000      -1.65330000
N       -1.81640000      -1.81000000      -0.80440000
C       -3.08340000      -1.66570000       0.06730000
H       -0.56890000       1.78540000       0.28540000
H        0.81860000      -0.51780000      -0.59470000
H        0.05860000      -1.69170000       1.50320000
H       -0.67750000      -0.13280000       2.11550000
H       -3.22690000       0.72390000       0.12410000
H       -3.29900000      -1.02120000      -2.24890000
H       -1.71990000      -0.13450000      -2.25560000
H       -2.95520000      -2.04160000       1.08450000
H       -3.98080000      -2.07200000      -0.40740000
