17
Properties=species:S:1:pos:R:3 gdb_108970=T pbc="F F F"
O        0.02070000       1.40310000      -0.05670000
C       -0.00470000      -0.01180000      -0.00190000
C       -1.41700000      -0.47580000       0.11880000
C       -2.54540000       0.24650000       0.04180000
C       -3.72080000      -0.65730000       0.06880000
C       -3.61940000      -1.94260000      -0.83980000
O       -2.30930000      -2.16020000      -1.30900000
C       -1.81070000      -1.93250000       0.08200000
C       -3.27530000      -1.99970000       0.60370000
H        0.93380000       1.68130000      -0.16960000
H        0.44760000      -0.45770000      -0.90550000
H        0.58340000      -0.38920000       0.85470000
H       -2.59560000       1.31410000      -0.12230000
H       -4.72350000      -0.30330000       0.27630000
H       -4.44300000      -2.30610000      -1.44240000
H       -1.07940000      -2.69400000       0.35300000
H       -3.67640000      -2.53660000       1.45370000
