19
Properties=species:S:1:pos:R:3 gdb_83095=T pbc="F F F"
O        0.13680000       1.34600000       0.25090000
C        0.01290000      -0.03110000      -0.00070000
C       -1.42920000      -0.56250000      -0.24410000
C       -2.09110000       0.30850000      -1.34330000
C       -1.13400000       0.64690000      -2.46630000
C        0.14870000       0.26790000      -2.45960000
C        0.69230000      -0.55510000      -1.29950000
C        0.09050000      -1.95450000      -1.35560000
C       -1.10670000      -1.94990000      -0.76350000
H       -0.01800000       1.80460000      -0.58490000
H        0.44450000      -0.53980000       0.86580000
H       -2.04490000      -0.55760000       0.65960000
H       -2.97640000      -0.19740000      -1.75230000
H       -2.46400000       1.23890000      -0.89270000
H       -1.53580000       1.21480000      -3.30250000
H        0.80910000       0.52090000      -3.28400000
H        1.78360000      -0.52960000      -1.26120000
H        0.56110000      -2.79150000      -1.85770000
H       -1.78590000      -2.79180000      -0.69240000
