20
Properties=species:S:1:pos:R:3 gdb_104819=T pbc="F F F"
C        0.66660000      -0.79360000      -1.24570000
C       -0.00710000      -0.19750000      -0.00570000
C       -1.52570000      -0.37580000      -0.00020000
C       -2.04750000      -1.80750000       0.33960000
N       -2.57690000      -1.24910000       1.58820000
C       -2.22830000       0.05090000       1.33670000
O       -2.41740000       1.08520000       1.92400000
O       -2.16610000       0.09970000      -1.16300000
C       -2.11310000       1.50860000      -1.35280000
H        1.74640000      -0.62050000      -1.22300000
H        0.50360000      -1.87500000      -1.30760000
H        0.26680000      -0.34950000      -2.16100000
H        0.39180000      -0.65810000       0.90600000
H        0.22300000       0.87090000       0.07560000
H       -2.81170000      -2.15240000      -0.36110000
H       -1.28060000      -2.57510000       0.48050000
H       -3.14250000      -1.65670000       2.31800000
H       -2.45560000       2.04740000      -0.46300000
H       -1.10200000       1.85160000      -1.61070000
H       -2.77810000       1.72810000      -2.19110000
