15
Properties=species:S:1:pos:R:3 gdb_12334=T pbc="F F F"
N        0.28920000       1.19130000       0.56040000
C       -0.08100000      -0.08340000      -0.04730000
C       -1.56660000      -0.18370000      -0.25020000
C       -2.07500000      -0.94320000      -1.21180000
C       -1.19180000      -1.70740000      -2.14680000
O        0.14040000      -1.18800000      -2.26980000
C        0.69780000      -0.37900000      -1.34410000
O        1.79020000       0.08050000      -1.54620000
H        1.30500000       1.24440000       0.57740000
H       -0.00180000       1.94480000      -0.05910000
H        0.22520000      -0.87370000       0.65860000
H       -2.18800000       0.37570000       0.44200000
H       -3.14540000      -1.05800000      -1.35100000
H       -1.11790000      -2.76230000      -1.84390000
H       -1.59750000      -1.69830000      -3.16400000
