13
Properties=species:S:1:pos:R:3 gdb_5173=T pbc="F F F"
O        0.57810000       2.49690000       1.40220000
C        0.19870000       1.96450000       0.38430000
N        0.97920000       1.19690000      -0.43870000
C        2.32210000       0.91450000      -0.22960000
C        3.22780000       1.24640000       0.72970000
C        4.44960000       0.60870000       0.32400000
C        4.18850000      -0.04820000      -0.83160000
O        2.87480000       0.13150000      -1.18770000
H       -0.83540000       2.03940000      -0.00060000
H        0.56450000       0.79690000      -1.26690000
H        3.03650000       1.85710000       1.59330000
H        5.39720000       0.64340000       0.83830000
H        4.76830000      -0.65680000      -1.50350000
