16
Properties=species:S:1:pos:R:3 gdb_29186=T pbc="F F F"
C        0.00330000       1.53410000       0.00970000
C        0.00340000       0.03190000      -0.01260000
C       -0.03490000      -0.67150000      -1.17320000
C       -0.01100000      -2.11800000      -1.22620000
O       -0.03640000      -2.81560000      -2.20690000
O        0.05250000      -2.74450000       0.02310000
C        0.06160000      -2.04490000       1.17580000
C        0.05470000      -0.69380000       1.23810000
N        0.18710000       0.01750000       2.45040000
H        0.84790000       1.90910000       0.59700000
H        0.05890000       1.94400000      -1.00030000
H       -0.90860000       1.92440000       0.48020000
H       -0.07440000      -0.17390000      -2.13480000
H        0.09780000      -2.69360000       2.04400000
H        0.15640000      -0.59040000       3.25970000
H       -0.51130000       0.74350000       2.56170000
