16
Properties=species:S:1:pos:R:3 gdb_56466=T pbc="F F F"
C        0.23890000       1.42660000      -0.42380000
C       -0.03030000      -0.04990000      -0.03170000
C       -1.45720000      -0.28820000       0.18320000
N       -2.58360000      -0.44910000       0.37930000
C        0.54130000      -0.99160000      -1.10860000
O       -0.14980000      -1.60730000      -1.87670000
C        2.06940000      -1.04370000      -1.19220000
C        2.53110000      -0.36320000      -2.47770000
O        3.23570000       0.60970000      -2.49800000
H        1.30640000       1.59480000      -0.58540000
H       -0.29850000       1.67880000      -1.34100000
H       -0.10330000       2.09080000       0.37210000
H        0.49470000      -0.26010000       0.90870000
H        2.56570000      -0.57500000      -0.34130000
H        2.34370000      -2.10290000      -1.25250000
H        2.14250000      -0.83340000      -3.40410000
