20
Properties=species:S:1:pos:R:3 gdb_78249=T pbc="F F F"
C       -0.10390000       1.63270000      -0.88010000
C       -0.02800000       0.12750000      -0.74430000
C        0.63270000      -0.85470000      -1.62510000
C        2.00810000      -0.44050000      -2.13600000
C        2.17420000       0.65800000      -3.14970000
O        1.28160000       1.21800000      -3.73620000
C        2.41450000      -0.24760000      -0.62560000
C        2.99530000       1.04560000      -0.07340000
N        1.05410000      -0.69550000      -0.15650000
H        0.68700000       2.07170000      -1.48310000
H       -1.04940000       1.88720000      -1.37020000
H       -0.10380000       2.10510000       0.10820000
H       -0.96230000      -0.27140000      -0.34840000
H        0.12250000      -1.75000000      -1.96690000
H        2.56720000      -1.29600000      -2.53450000
H        3.23950000       0.92640000      -3.34540000
H        3.09230000      -1.05930000      -0.34780000
H        2.47500000       1.94300000      -0.40860000
H        2.94800000       1.01830000       1.02050000
H        4.04890000       1.13810000      -0.35810000
