19
Properties=species:S:1:pos:R:3 gdb_121682=T pbc="F F F"
O        0.12230000       1.39560000       0.05620000
C        0.08950000      -0.01770000      -0.05320000
C       -1.36300000      -0.45890000       0.06740000
C       -1.52140000      -1.97450000      -0.03030000
C       -2.97090000      -2.44010000       0.03730000
O       -3.90320000      -1.67900000       0.02400000
C       -3.14890000      -3.96920000       0.13050000
C       -4.52050000      -4.42960000       0.00810000
C       -5.65220000      -4.81650000      -0.09580000
H        1.03640000       1.68380000      -0.01970000
H        0.50280000      -0.35380000      -1.01930000
H        0.69320000      -0.49360000       0.73820000
H       -1.76670000      -0.10140000       1.02010000
H       -1.95360000       0.02620000      -0.71520000
H       -1.10260000      -2.35260000      -0.97520000
H       -0.95350000      -2.48960000       0.75750000
H       -2.50970000      -4.43840000      -0.62950000
H       -2.72230000      -4.28240000       1.09450000
H       -6.65600000      -5.14980000      -0.18820000
