19
Properties=species:S:1:pos:R:3 gdb_68249=T pbc="F F F"
O       -0.09650000       1.37190000       0.10830000
C        0.05590000      -0.00820000       0.08330000
C        0.88400000      -0.78850000      -1.00210000
C        0.76810000      -1.93560000       0.04980000
C        0.85950000      -0.82210000       1.13570000
C       -0.74230000      -2.23300000      -0.05700000
C       -1.57530000      -2.43780000       1.22260000
O       -1.93930000      -1.03770000       1.26580000
C       -1.27170000      -0.77790000       0.00920000
H        0.76980000       1.77490000       0.22430000
H        0.43850000      -0.94310000      -1.98980000
H        1.90030000      -0.39830000      -1.10090000
H        1.45740000      -2.77860000       0.05080000
H        1.88320000      -0.45240000       1.24080000
H        0.40700000      -0.97710000       2.11540000
H       -0.99940000      -2.85700000      -0.91360000
H       -2.45910000      -3.07420000       1.09010000
H       -1.03720000      -2.75790000       2.12330000
H       -1.95540000      -0.38140000      -0.74700000
