19
Properties=species:S:1:pos:R:3 gdb_117578=T pbc="F F F"
C        0.65810000       0.94090000       0.65130000
O        0.87600000       0.50410000      -0.67890000
C       -0.07070000      -0.41330000      -1.17010000
C        0.54140000      -1.82600000      -1.30340000
C        0.97960000      -2.33920000       0.01220000
N        1.27700000      -2.79020000       1.03510000
N       -0.40190000      -2.68760000      -2.01030000
C       -0.24480000      -4.13730000      -1.94640000
C       -1.37870000      -3.46750000      -1.25080000
H       -0.30280000       1.46710000       0.74850000
H        0.68420000       0.11100000       1.36850000
H        1.46530000       1.63740000       0.88930000
H       -0.96800000      -0.45690000      -0.53910000
H       -0.37810000      -0.10820000      -2.17610000
H        1.43780000      -1.73180000      -1.92720000
H       -0.39960000      -4.65800000      -2.88650000
H        0.54190000      -4.54410000      -1.31490000
H       -1.33290000      -3.43640000      -0.16450000
H       -2.37880000      -3.48830000      -1.67260000
