21
Properties=species:S:1:pos:R:3 gdb_77591=T pbc="F F F"
C       -0.16850000       1.56590000      -0.02670000
C        0.02050000       0.05520000       0.01450000
C        1.05260000      -0.60970000      -0.91780000
O        0.72280000      -1.16970000      -2.14150000
C        2.47060000      -0.26810000      -0.55000000
C        1.72070000      -1.30970000       0.25680000
C        0.76670000      -0.60960000       1.20330000
C        1.08610000      -0.01330000       2.54440000
C        0.13800000      -1.19010000       2.43050000
H        0.78180000       2.09580000       0.09290000
H       -0.61200000       1.87760000      -0.97910000
H       -0.83920000       1.90470000       0.77100000
H       -0.94170000      -0.44840000      -0.13270000
H        0.90340000      -0.52040000      -2.82980000
H        3.20580000      -0.67630000      -1.23700000
H        2.74340000       0.68470000      -0.10270000
H        2.06380000      -2.33410000       0.33830000
H        2.07200000      -0.18760000       2.96350000
H        0.66220000       0.95510000       2.79140000
H       -0.92000000      -1.01290000       2.59890000
H        0.48470000      -2.15980000       2.77430000
