23
Properties=species:S:1:pos:R:3 gdb_60137=T pbc="F F F"
C        0.08290000       1.56700000      -0.16030000
C        0.00190000       0.04590000      -0.02300000
O        0.63080000      -0.39340000       1.18100000
C       -1.43910000      -0.47580000      -0.13310000
C       -1.52290000      -1.99670000      -0.15860000
C       -1.36380000      -2.87560000       1.12630000
C       -2.80450000      -2.45380000       1.54350000
C       -2.87920000      -2.75520000       0.01730000
C       -2.03150000      -4.02550000       0.31720000
H        1.11770000       1.90290000      -0.05170000
H       -0.29170000       1.89980000      -1.13390000
H       -0.51950000       2.05990000       0.61360000
H        0.60300000      -0.41370000      -0.81830000
H        0.15350000       0.00340000       1.91840000
H       -2.02770000      -0.04410000       0.68640000
H       -1.88040000      -0.08350000      -1.05960000
H       -0.93100000      -2.37080000      -1.00440000
H       -0.48170000      -2.94100000       1.76180000
H       -3.33850000      -3.14920000       2.19740000
H       -2.96470000      -1.42440000       1.86900000
H       -3.75910000      -2.68790000      -0.62620000
H       -1.45570000      -4.44130000      -0.51470000
H       -2.52210000      -4.81080000       0.89860000
