20
Properties=species:S:1:pos:R:3 gdb_41779=T pbc="F F F"
C        0.15190000       1.65750000       0.30150000
C        1.55680000       1.46580000      -0.33030000
C        1.06840000       0.10290000      -0.90480000
N        2.06580000      -0.91830000      -1.02230000
C        2.22400000      -1.98070000      -0.36560000
O        1.53630000      -2.60080000       0.62830000
C        0.22410000      -2.18970000       1.02620000
C        0.10270000      -0.70950000       1.36930000
C       -0.11660000       0.13750000       0.12170000
H        0.11650000       2.04150000       1.32430000
H       -0.50510000       2.27100000      -0.32020000
H        1.91030000       2.21200000      -1.04460000
H        2.33110000       1.31170000       0.42560000
H        0.66600000       0.27430000      -1.91020000
H        3.10180000      -2.59510000      -0.57200000
H       -0.48930000      -2.45590000       0.23290000
H        0.00790000      -2.81640000       1.89520000
H       -0.74320000      -0.57630000       2.05540000
H        1.00050000      -0.39930000       1.91820000
H       -1.08910000      -0.12300000      -0.31060000
