18
Properties=species:S:1:pos:R:3 gdb_120571=T pbc="F F F"
C        0.11220000       1.50280000      -0.20140000
C       -0.03730000       0.03200000       0.12080000
O        1.15620000      -0.75840000       0.16880000
C        0.41140000      -0.60610000       1.38410000
C        1.06260000       0.12550000       2.52840000
C        2.13340000      -0.73130000       3.20250000
O        2.65010000       0.02180000       4.28560000
C       -1.14520000      -0.61480000      -0.57290000
N       -2.03860000      -1.10180000      -1.12110000
H        0.96310000       1.92950000       0.32930000
H        0.27400000       1.63240000      -1.27520000
H       -0.79470000       2.04850000       0.07500000
H       -0.12430000      -1.51380000       1.66950000
H        1.52300000       1.05830000       2.19520000
H        0.29740000       0.38200000       3.27080000
H        1.68980000      -1.68000000       3.54640000
H        2.91490000      -0.97950000       2.46890000
H        3.35540000      -0.48540000       4.69780000
