16
Properties=species:S:1:pos:R:3 gdb_52027=T pbc="F F F"
O        0.01280000      -0.12060000      -0.19700000
C        0.04710000       1.08080000      -0.23180000
C        1.30240000       1.91330000      -0.07170000
C        1.48940000       2.88210000      -1.24830000
C        2.70300000       3.81450000      -1.07600000
C        2.97890000       4.66280000      -2.33460000
O        2.44810000       4.45790000      -3.38920000
C        2.58750000       4.69590000       0.08660000
N        2.48190000       5.40870000       0.99030000
H       -0.88130000       1.67880000      -0.38830000
H        1.19810000       2.48700000       0.86060000
H        2.15510000       1.23650000       0.03820000
H        1.63250000       2.33270000      -2.18260000
H        0.59250000       3.49600000      -1.38320000
H        3.61360000       3.21130000      -0.92960000
H        3.72770000       5.46850000      -2.19140000
