20
Properties=species:S:1:pos:R:3 gdb_82399=T pbc="F F F"
C       -0.27060000       1.50930000       0.10290000
C        0.04330000       0.00580000      -0.02500000
C        0.80380000      -0.40180000      -1.29270000
C        1.64920000       0.54550000      -2.10810000
C        2.31080000      -0.47740000      -1.22210000
C        2.91460000      -0.04810000       0.10670000
N        2.09950000      -0.52650000       1.21760000
C        0.73580000      -0.46050000       1.26370000
O        0.10550000      -0.73530000       2.26980000
H        0.63630000       2.11740000       0.18670000
H       -0.83000000       1.86010000      -0.76900000
H       -0.87040000       1.68230000       1.00000000
H       -0.91410000      -0.52160000      -0.01880000
H        0.32130000      -1.19370000      -1.85600000
H        1.68270000       0.39640000      -3.18160000
H        1.70930000       1.58550000      -1.80520000
H        2.79090000      -1.32580000      -1.69740000
H        3.91890000      -0.46460000       0.22280000
H        3.02490000       1.04580000       0.14240000
H        2.54050000      -0.73150000       2.10180000
