22
Properties=species:S:1:pos:R:3 gdb_114616=T pbc="F F F"
C       -0.43210000       1.44450000      -0.06400000
C        0.09450000       0.01000000       0.09100000
C        0.85330000      -0.48450000      -1.10610000
N        0.16060000      -0.89200000      -2.36000000
C        1.04110000      -1.85780000      -1.65220000
C        2.46560000      -1.54710000      -2.11400000
C        2.28790000      -0.09350000      -1.53390000
C        2.46950000       1.08230000      -2.48430000
O        3.81790000       1.21470000      -2.92070000
H        0.38960000       2.15510000      -0.19810000
H       -1.09040000       1.53110000      -0.93400000
H       -0.99650000       1.75170000       0.82160000
H        0.74320000      -0.04830000       0.97470000
H       -0.74500000      -0.67240000       0.28230000
H       -0.79950000      -1.12260000      -2.10130000
H        0.64460000      -2.80330000      -1.30050000
H        3.23470000      -2.11960000      -1.59190000
H        2.62090000      -1.62810000      -3.19510000
H        2.92930000       0.04280000      -0.65760000
H        1.77710000       0.98060000      -3.33030000
H        2.23350000       2.02270000      -1.97350000
H        4.02260000       0.44360000      -3.45920000
