12
Properties=species:S:1:pos:R:3 gdb_21020=T pbc="F F F"
C        0.03490000       1.40530000       0.08110000
N       -0.00400000      -0.04220000      -0.00450000
C       -0.20240000      -0.83470000      -1.08200000
N       -0.16440000      -2.10550000      -0.73740000
C        0.06740000      -2.03220000       0.60400000
N        0.17210000      -0.79820000       1.09330000
C        0.19170000      -3.18220000       1.43860000
N        0.29150000      -4.11810000       2.10970000
H        1.00830000       1.72910000       0.45520000
H       -0.13000000       1.81760000      -0.91530000
H       -0.74620000       1.75830000       0.75770000
H       -0.36670000      -0.44510000      -2.07530000
