18
Properties=species:S:1:pos:R:3 gdb_110426=T pbc="F F F"
C        0.05450000       1.44280000       0.15220000
C        0.03100000      -0.06560000      -0.11800000
C       -1.37260000      -0.64260000      -0.07060000
C       -1.61020000      -2.16410000      -0.13190000
C       -2.73330000      -1.89860000       0.94590000
C       -1.65600000      -1.85210000       2.00250000
N       -2.10110000      -0.61680000       1.26980000
C       -0.79730000      -2.67030000       1.08160000
O        0.01330000      -3.53740000       1.24160000
H        1.07710000       1.83000000       0.12850000
H       -0.52750000       1.98850000      -0.59850000
H       -0.37290000       1.66950000       1.13330000
H        0.45300000      -0.27960000      -1.10890000
H        0.67110000      -0.58580000       0.60460000
H       -2.03170000      -0.10880000      -0.76330000
H       -1.65830000      -2.74440000      -1.04940000
H       -3.78080000      -2.14850000       1.03580000
H       -1.73910000      -1.85250000       3.08020000
