13
Properties=species:S:1:pos:R:3 gdb_131113=T pbc="F F F"
O        0.01890000       1.43530000       0.01490000
C        0.01850000       0.03140000      -0.02500000
C        0.69080000      -0.47640000      -1.25070000
N        1.20400000      -0.88040000      -2.20360000
C        0.66940000      -0.55460000       1.20410000
C        0.50060000      -1.74510000       1.86740000
N        1.38900000      -1.66660000       2.88560000
N        2.06760000      -0.50790000       2.87020000
N        1.63120000       0.16370000       1.84570000
H        0.84100000       1.70180000       0.45150000
H       -1.02770000      -0.29160000      -0.08060000
H       -0.13800000      -2.59740000       1.70910000
H        1.57850000      -2.33770000       3.61400000
