20
Properties=species:S:1:pos:R:3 gdb_9900=T pbc="F F F"
C        0.25470000       1.43900000       0.27510000
C       -0.26740000       0.08280000      -0.23400000
C        0.49430000      -0.44180000      -1.36340000
C        1.14190000      -0.85850000      -2.29160000
C        1.89160000      -1.33880000      -3.42480000
C        1.53410000      -0.69380000      -4.75610000
C        3.34120000      -1.74210000      -3.19310000
C        2.30430000      -2.80400000      -3.42830000
H        1.29400000       1.35590000       0.60460000
H        0.21260000       2.19240000      -0.51630000
H       -0.34810000       1.79000000       1.11840000
H       -0.24990000      -0.64620000       0.58680000
H       -1.32260000       0.18270000      -0.52030000
H        1.70330000       0.38720000      -4.72410000
H        2.14410000      -1.11070000      -5.56380000
H        0.48100000      -0.86300000      -5.00180000
H        4.04570000      -1.52390000      -3.98880000
H        3.73930000      -1.62820000      -2.19200000
H        1.99600000      -3.41380000      -2.58760000
H        2.29720000      -3.31510000      -4.38530000
