15
Properties=species:S:1:pos:R:3 gdb_42310=T pbc="F F F"
O       -0.00910000      -0.05310000       0.00390000
C       -0.04250000       1.16300000       0.00780000
C        1.19780000       1.96120000       0.00120000
N        2.19110000       2.55200000      -0.00420000
N       -1.18040000       1.89880000       0.01820000
C       -2.50480000       1.24410000       0.02560000
C       -3.51140000       2.42660000       0.03590000
C       -2.62070000       3.64780000       0.03320000
C       -1.33630000       3.29610000       0.02320000
H       -2.59640000       0.60530000      -0.85620000
H       -2.58410000       0.60040000       0.90510000
H       -4.17220000       2.40090000      -0.83760000
H       -4.16000000       2.39590000       0.91830000
H       -2.98280000       4.66530000       0.03860000
H       -0.45360000       3.91880000       0.01880000
