17
Properties=species:S:1:pos:R:3 gdb_62152=T pbc="F F F"
O       -0.19060000       1.02130000      -0.39900000
C        0.12630000      -0.33010000      -0.13290000
C        1.03890000      -0.78790000      -1.26340000
O        0.32880000      -0.85490000      -2.49800000
C        0.29270000       0.26340000      -3.25860000
O       -0.34210000       0.32400000      -4.26710000
C        0.81690000      -0.48720000       1.24180000
C       -0.02430000       0.04500000       2.30600000
C       -0.76240000       0.51330000       3.13180000
H       -0.78550000       1.32830000       0.29550000
H       -0.77900000      -0.95530000      -0.14580000
H        1.89230000      -0.10200000      -1.34410000
H        1.41390000      -1.79640000      -1.07270000
H        0.91670000       1.07900000      -2.85350000
H        1.03710000      -1.54590000       1.42710000
H        1.77510000       0.04740000       1.22490000
H       -1.39370000       0.91020000       3.88840000
