22
Properties=species:S:1:pos:R:3 gdb_6138=T pbc="F F F"
C       -0.73420000       1.07700000      -1.11920000
C       -0.00490000      -0.17420000      -0.66130000
O        1.32870000      -0.26060000      -1.21250000
C        1.94650000      -0.33350000       0.10570000
C        2.67270000      -1.66300000       0.28190000
C        2.89260000       0.84460000       0.31040000
C        0.54330000      -0.26530000       0.78990000
C        0.22920000       0.83890000       1.79080000
H       -0.18850000       1.98570000      -0.85140000
H       -0.84290000       1.05910000      -2.20830000
H       -1.73630000       1.12780000      -0.67900000
H       -0.59440000      -1.05620000      -0.94980000
H        3.51470000      -1.73480000      -0.41440000
H        3.06260000      -1.76260000       1.30120000
H        1.99780000      -2.50140000       0.08680000
H        2.38820000       1.79860000       0.14170000
H        3.31240000       0.84570000       1.32220000
H        3.72180000       0.77520000      -0.40110000
H        0.29120000      -1.22800000       1.24470000
H        0.45440000       1.83730000       1.40790000
H       -0.83190000       0.82120000       2.06220000
H        0.80350000       0.70100000       2.71330000
