18
Properties=species:S:1:pos:R:3 gdb_43116=T pbc="F F F"
O       -0.00730000      -0.00420000       0.00950000
C       -0.02480000       1.18650000       0.03200000
C       -1.07240000       2.31510000       0.04130000
C       -0.80930000       2.85670000       1.47380000
C        0.71670000       3.15870000       1.29190000
C        0.82240000       4.59850000       0.77050000
C        0.05060000       4.48860000      -0.57810000
N       -0.07930000       3.03570000      -0.85250000
C        0.97270000       2.34320000      -0.01940000
H       -2.09400000       2.19990000      -0.31620000
H       -1.38290000       3.75580000       1.71580000
H       -1.02480000       2.10250000       2.23610000
H        1.34770000       2.92540000       2.14950000
H        0.37420000       5.31840000       1.46220000
H        1.86530000       4.89030000       0.60780000
H       -0.94190000       4.94630000      -0.54280000
H        0.59650000       4.95420000      -1.40280000
H        1.98910000       2.27220000      -0.40480000
