11
Properties=species:S:1:pos:R:3 gdb_133621=T pbc="F F F"
F        0.00500000       0.06800000      -0.12010000
C       -0.02610000       1.40110000      -0.02050000
F        1.22930000       1.85030000      -0.12240000
F       -0.71520000       1.87310000      -1.06950000
C       -0.69130000       1.85970000       1.26790000
C       -0.00180000       1.38730000       2.53850000
F        1.25550000       1.83520000       2.62110000
F       -0.67050000       1.84820000       3.60550000
F        0.03080000       0.05320000       2.62330000
H       -0.71350000       2.95120000       1.27400000
H       -1.71820000       1.48890000       1.27570000
