21
Properties=species:S:1:pos:R:3 gdb_87141=T pbc="F F F"
C       -0.11220000       1.27790000      -0.30490000
C        0.28750000      -0.15900000      -0.05840000
C        1.72040000      -0.51350000       0.29640000
C        0.64540000      -0.64830000       1.33030000
O        0.70410000       0.30970000       2.36250000
C        0.15800000      -1.98040000       1.82850000
O       -1.05830000      -1.86170000       2.53720000
C        0.30180000      -3.24040000       1.03350000
C        1.11930000      -3.04240000       2.29570000
H        0.38310000       1.94610000       0.40430000
H        0.15960000       1.59470000      -1.31760000
H       -1.19460000       1.41290000      -0.19660000
H       -0.22940000      -0.89060000      -0.67390000
H        2.16950000      -1.40280000      -0.13250000
H        2.40990000       0.31010000       0.44920000
H       -0.21030000       0.51760000       2.58830000
H       -0.82930000      -1.61970000       3.44110000
H       -0.53490000      -3.92710000       1.08510000
H        0.80860000      -3.21220000       0.07540000
H        2.18130000      -2.84820000       2.19670000
H        0.83660000      -3.62280000       3.16740000
