19
Properties=species:S:1:pos:R:3 gdb_77705=T pbc="F F F"
O        0.38670000       0.87160000       0.57390000
C        0.15650000      -0.40980000       0.03830000
C       -1.31640000      -0.81870000      -0.10390000
C       -2.26180000      -1.26000000       0.96820000
C       -2.45670000       0.07440000       0.28300000
C       -1.05650000      -1.39970000      -1.50510000
C        0.26430000      -0.61870000      -1.48020000
C        0.79720000       0.32460000      -2.45720000
O        1.44980000      -0.92970000      -2.18380000
H        1.28500000       0.90410000       0.91450000
H        0.73720000      -1.17640000       0.57210000
H       -2.95600000      -2.06170000       0.73720000
H       -1.90540000      -1.25860000       1.99380000
H       -2.21240000       0.97280000       0.83870000
H       -3.28360000       0.17780000      -0.41270000
H       -0.89510000      -2.48280000      -1.50130000
H       -1.76880000      -1.14610000      -2.29410000
H        0.33600000       0.40410000      -3.44060000
H        1.32460000       1.21140000      -2.11040000
