17
Properties=species:S:1:pos:R:3 gdb_57088=T pbc="F F F"
O        0.29500000       1.52680000      -0.00770000
C        0.10130000       0.12710000      -0.03830000
C        0.62380000      -0.48140000      -1.26870000
C        1.06290000      -0.97820000      -2.27100000
C        0.73180000      -0.53170000       1.21850000
O        2.08540000      -0.07700000       1.32010000
C        2.34530000       0.41030000       2.63930000
C        1.00870000       0.40740000       3.32430000
C        0.09680000      -0.12300000       2.51990000
H        1.24590000       1.64450000       0.11930000
H       -0.98310000      -0.03320000       0.00290000
H        1.44620000      -1.41230000      -3.16130000
H        0.71100000      -1.62440000       1.07940000
H        3.07320000      -0.24420000       3.14480000
H        2.79610000       1.41080000       2.57530000
H        0.85780000       0.77710000       4.33020000
H       -0.95350000      -0.27560000       2.73230000
