18
Properties=species:S:1:pos:R:3 gdb_56503=T pbc="F F F"
C        0.03180000       1.56370000       0.02790000
C        0.01020000       0.02180000       0.03450000
C        0.76240000      -0.49920000       1.17240000
C        1.39930000      -0.89820000       2.11010000
C       -1.45220000      -0.55280000       0.01840000
C       -1.46630000      -2.08410000       0.05030000
O       -2.20240000      -0.12550000       1.14070000
C       -2.11080000      -0.08670000      -1.22950000
N       -2.62420000       0.29880000      -2.19070000
H        1.06180000       1.92150000      -0.03030000
H       -0.52080000       1.95710000      -0.82970000
H       -0.39820000       1.96480000       0.95080000
H        0.48550000      -0.33010000      -0.89060000
H        1.96170000      -1.25740000       2.93650000
H       -1.00230000      -2.41920000       0.97920000
H       -2.49640000      -2.44310000       0.01210000
H       -0.91360000      -2.49470000      -0.79810000
H       -2.30010000       0.83260000       1.10800000
