19
Properties=species:S:1:pos:R:3 gdb_108181=T pbc="F F F"
C        0.00670000       1.55370000       0.07410000
C       -0.04530000       0.02310000       0.02040000
C       -1.45160000      -0.52710000      -0.04160000
C       -1.62770000      -2.08310000       0.05920000
O       -2.96740000      -2.21310000       0.54080000
C       -3.40210000      -0.83930000       0.70190000
O       -2.23850000      -0.17280000       1.12200000
C       -3.62040000      -0.29190000      -0.70640000
C       -2.38650000      -0.11010000      -1.17760000
H        1.04060000       1.90420000       0.14120000
H       -0.44300000       2.00010000      -0.81840000
H       -0.54080000       1.92510000       0.94390000
H        0.50450000      -0.34640000      -0.85450000
H        0.45080000      -0.39950000       0.90180000
H       -1.50780000      -2.59340000      -0.90210000
H       -0.93070000      -2.50320000       0.79310000
H       -4.20090000      -0.79700000       1.43900000
H       -4.56910000      -0.23170000      -1.22070000
H       -2.06850000       0.13520000      -2.18180000
