18
Properties=species:S:1:pos:R:3 gdb_113012=T pbc="F F F"
O        0.15430000       1.27360000      -0.18100000
C        0.08670000      -0.07000000       0.26190000
C       -1.34210000      -0.59010000       0.15330000
N       -1.91350000      -0.42300000      -1.21050000
C       -2.55320000      -1.75720000      -1.16140000
C       -2.39750000      -2.58730000      -2.41730000
O       -3.13860000      -3.47990000      -2.73370000
C       -1.61770000      -2.12330000       0.05100000
O       -0.52700000      -2.96560000      -0.21780000
H       -0.13170000       1.26240000      -1.10260000
H        0.77500000      -0.70810000      -0.31340000
H        0.42430000      -0.08240000       1.30270000
H       -1.95920000      -0.13000000       0.93630000
H       -2.55620000       0.35320000      -1.32060000
H       -3.60840000      -1.76620000      -0.86210000
H       -1.51610000      -2.30220000      -3.03730000
H       -2.13370000      -2.57020000       0.90030000
H       -0.00290000      -2.58780000      -0.93210000
