18
Properties=species:S:1:pos:R:3 gdb_98573=T pbc="F F F"
C        0.01040000       1.35420000      -0.07040000
O        0.02640000      -0.07040000       0.02010000
C        0.68410000      -0.56890000       1.10470000
O        1.21700000       0.14320000       1.93130000
C        0.65840000      -2.01970000       1.10850000
C        1.19500000      -2.77490000       2.09100000
N        0.96980000      -4.11850000       1.92100000
C        0.49820000      -4.33660000       0.53880000
C       -0.03000000      -2.93960000       0.11420000
H        1.02650000       1.75320000      -0.13580000
H       -0.54890000       1.59030000      -0.97680000
H       -0.47690000       1.79600000       0.80320000
H        1.71580000      -2.41230000       2.96750000
H        1.62410000      -4.77630000       2.31650000
H        1.33240000      -4.65060000      -0.10420000
H       -0.26740000      -5.11580000       0.50630000
H       -1.12140000      -2.88350000       0.21490000
H        0.20420000      -2.70960000      -0.92780000
