13
Properties=species:S:1:pos:R:3 gdb_129800=T pbc="F F F"
N        0.20930000       1.43250000       0.00360000
C       -0.04260000       0.04880000       0.01050000
C       -1.12980000      -0.79860000      -0.01690000
O       -2.49330000      -0.86010000      -0.06230000
C       -2.71890000      -2.22720000      -0.05480000
N       -1.69110000      -3.00400000      -0.01130000
C       -0.62900000      -2.10260000       0.01460000
N        0.70060000      -2.15040000       0.06020000
N        1.01390000      -0.83520000       0.05610000
H       -0.15320000       1.87880000      -0.83250000
H       -0.20630000       1.89680000       0.80440000
H       -3.75930000      -2.51310000      -0.08680000
H        1.98080000      -0.55300000       0.08550000
