19
Properties=species:S:1:pos:R:3 gdb_97720=T pbc="F F F"
C        0.03430000       1.57160000       0.08150000
C        0.02250000       0.03280000       0.02010000
C        0.63940000      -0.49820000      -1.18940000
C        1.16410000      -0.92610000      -2.18730000
C        1.74460000      -1.39410000      -3.39740000
C        1.39410000      -0.99060000      -4.84580000
C        1.83690000      -2.42130000      -5.31010000
C        2.17930000      -2.74080000      -3.85020000
O        3.13740000      -1.77840000      -3.41650000
H        1.05810000       1.95320000       0.04800000
H       -0.51290000       1.99860000      -0.76330000
H       -0.43460000       1.91830000       1.00700000
H        0.54450000      -0.37430000       0.89560000
H       -1.01110000      -0.33040000       0.09070000
H        0.32690000      -0.81200000      -4.99000000
H        1.96670000      -0.14330000      -5.22820000
H        1.00320000      -3.01140000      -5.69750000
H        2.68020000      -2.47940000      -6.00180000
H        2.16020000      -3.69180000      -3.32940000
