17
Properties=species:S:1:pos:R:3 gdb_41331=T pbc="F F F"
C        0.02460000       1.51810000      -0.08800000
O        1.46420000       1.48390000       0.21730000
C        1.23390000       0.22250000       0.92070000
C        1.74540000      -1.22040000       0.76130000
C        0.36250000      -1.84000000       1.29360000
O       -0.71320000      -1.01510000       0.73910000
C        0.04480000      -0.01710000       0.03520000
C        0.66620000      -0.69130000      -1.18310000
C        1.69420000      -1.41760000      -0.73900000
H       -0.53630000       2.04040000       0.69630000
H       -0.16960000       1.95560000      -1.07040000
H        0.98810000       0.45390000       1.96420000
H        2.61530000      -1.58130000       1.30900000
H        0.24100000      -2.87000000       0.94890000
H        0.29910000      -1.80560000       2.38700000
H        0.25800000      -0.63830000      -2.18420000
H        2.32810000      -2.09360000      -1.29810000
