15
Properties=species:S:1:pos:R:3 gdb_36131=T pbc="F F F"
N       -0.81720000       0.22220000       1.47660000
C       -0.24660000       0.45090000       0.49830000
C        0.49680000       0.76490000      -0.71860000
C        1.66830000       1.69890000      -0.47150000
C        2.54380000       1.63610000       0.76250000
C        1.74370000       2.87790000       0.48670000
O        2.40030000       3.90650000      -0.24270000
C        2.70720000       3.34670000      -1.43880000
N        2.33570000       2.15210000      -1.67510000
H        0.86400000      -0.16650000      -1.16490000
H       -0.18610000       1.21720000      -1.44650000
H        2.18220000       1.03430000       1.58940000
H        3.61990000       1.65350000       0.62710000
H        0.97630000       3.24680000       1.15380000
H        3.25700000       3.98790000      -2.11640000
