18
Properties=species:S:1:pos:R:3 gdb_113425=T pbc="F F F"
O        0.29930000       0.94570000       0.54750000
C       -0.16210000       0.22550000      -0.58280000
C       -1.47010000      -0.48870000      -0.33040000
C       -1.91140000      -1.64260000      -1.22910000
C       -1.48580000      -1.89320000       0.17270000
C       -0.39490000      -2.78860000       0.75380000
C       -1.47280000      -3.14820000       1.75900000
N       -1.53740000      -3.90060000       2.75770000
O       -2.42730000      -2.32440000       1.18590000
H        0.35590000       0.33330000       1.28800000
H       -0.28740000       0.97030000      -1.37590000
H        0.59070000      -0.49820000      -0.93850000
H       -2.26850000       0.14740000       0.04250000
H       -2.96840000      -1.72190000      -1.45680000
H       -1.24730000      -1.95950000      -2.02800000
H       -0.06830000      -3.61740000       0.12300000
H        0.47950000      -2.28920000       1.17700000
H       -2.46390000      -3.87230000       3.18650000
