17
Properties=species:S:1:pos:R:3 gdb_1783=T pbc="F F F"
C       -0.11970000       1.61970000       0.06850000
C       -0.07290000       0.10480000       0.03540000
C       -1.33310000      -0.56830000      -0.47690000
O       -1.58030000      -0.33770000      -1.85730000
C        1.25030000      -0.56810000      -0.28330000
C        0.68590000      -0.61940000       1.11590000
O        1.26070000       0.15490000       2.12980000
H        0.76940000       2.02820000       0.55140000
H       -0.17630000       2.03520000      -0.94460000
H       -0.99250000       1.97340000       0.63070000
H       -1.24560000      -1.65520000      -0.37600000
H       -2.19340000      -0.25210000       0.13590000
H       -1.76120000       0.60010000      -1.97200000
H        1.24550000      -1.46900000      -0.88790000
H        2.10720000       0.07970000      -0.43790000
H        0.27440000      -1.57010000       1.45800000
H        2.12090000      -0.22360000       2.33810000
