21
Properties=species:S:1:pos:R:3 gdb_103760=T pbc="F F F"
C        0.36850000       1.12180000       0.27390000
O       -0.23570000       0.01560000      -0.37250000
C        0.58070000      -0.66060000      -1.30250000
C        0.76630000       0.05310000      -2.62050000
C        1.68350000      -1.53500000      -0.71940000
C        0.38150000      -2.15190000      -1.20800000
O       -0.53540000      -2.60010000      -0.25400000
C        0.33820000      -3.07350000      -2.42030000
O        1.47220000      -2.99490000      -3.26840000
H        1.29610000       0.83320000       0.78630000
H        0.59510000       1.93120000      -0.43200000
H       -0.34950000       1.48960000       1.01040000
H        1.35180000       0.97130000      -2.49840000
H        1.28820000      -0.59370000      -3.32760000
H       -0.20630000       0.32350000      -3.04480000
H        2.58910000      -1.65080000      -1.30610000
H        1.82480000      -1.52000000       0.35610000
H       -0.90100000      -1.80210000       0.15410000
H        0.18680000      -4.09400000      -2.04120000
H       -0.52720000      -2.82760000      -3.04440000
H        2.21710000      -3.37630000      -2.79360000
