19
Properties=species:S:1:pos:R:3 gdb_75003=T pbc="F F F"
C        0.01360000       1.50410000       0.05030000
C       -0.04710000       0.01150000      -0.01550000
C       -0.09370000      -0.76080000      -1.10570000
C        0.01720000      -2.23560000      -0.75630000
C        1.51040000      -2.63120000      -0.79790000
O        2.08490000      -1.96600000       0.33670000
C        1.09300000      -1.89860000       1.32760000
C       -0.23840000      -2.27120000       0.77290000
C       -0.01600000      -0.83660000       1.21790000
H        0.95070000       1.83760000       0.51340000
H       -0.05370000       1.95360000      -0.94390000
H       -0.80030000       1.91000000       0.66460000
H       -0.05050000      -0.40100000      -2.12820000
H       -0.61540000      -2.90490000      -1.34500000
H        1.63990000      -3.72200000      -0.71090000
H        2.03640000      -2.27980000      -1.68990000
H        1.43280000      -2.20080000       2.31320000
H       -0.93310000      -2.96020000       1.23580000
H       -0.43060000      -0.46300000       2.14950000
