20
Properties=species:S:1:pos:R:3 gdb_108771=T pbc="F F F"
C       -0.19990000       1.53790000       0.05660000
C        0.05930000       0.02020000       0.01890000
C        0.76740000      -0.43260000      -1.23130000
C        2.04690000      -0.83030000      -1.23480000
C        2.74010000      -1.34430000      -2.44060000
O        3.85160000      -1.84540000      -2.39880000
N        2.01820000      -1.25510000      -3.61090000
C        0.88600000      -0.34990000      -3.74020000
C       -0.02480000      -0.47900000      -2.51900000
H        0.74230000       2.09310000       0.02510000
H       -0.81220000       1.86790000      -0.78870000
H       -0.72760000       1.81360000       0.97440000
H        0.64980000      -0.26750000       0.89470000
H       -0.90170000      -0.50690000       0.09680000
H        2.64390000      -0.85390000      -0.32920000
H        2.55810000      -1.47040000      -4.43660000
H        1.21870000       0.69660000      -3.83400000
H        0.33790000      -0.60050000      -4.65320000
H       -0.57400000      -1.43110000      -2.55710000
H       -0.77910000       0.31410000      -2.54300000
