21
Properties=species:S:1:pos:R:3 gdb_40906=T pbc="F F F"
C       -0.18260000       1.49230000      -0.16660000
O        1.16520000       1.64370000       0.32990000
C        1.34800000       0.21550000       0.43400000
C       -0.06620000      -0.02920000      -0.08480000
C       -1.02850000      -1.07510000       0.39620000
C       -2.51770000      -0.76190000       0.33840000
C       -2.75030000      -0.18090000      -1.07710000
C       -1.66060000      -0.82050000      -1.97080000
C       -0.49940000      -1.11130000      -1.02960000
H       -0.91870000       1.95870000       0.50220000
H       -0.29670000       1.91610000      -1.17350000
H        2.16490000      -0.14210000      -0.20810000
H        1.54260000      -0.09950000       1.46850000
H       -0.67360000      -1.77630000       1.14580000
H       -3.08130000      -1.69320000       0.46970000
H       -2.84780000      -0.07500000       1.12540000
H       -3.75980000      -0.37810000      -1.44680000
H       -2.63260000       0.90710000      -1.06110000
H       -2.01770000      -1.76600000      -2.39620000
H       -1.38620000      -0.17500000      -2.81240000
H        0.24680000      -1.83930000      -1.33420000
