19
Properties=species:S:1:pos:R:3 gdb_38728=T pbc="F F F"
C        0.03320000       1.52690000       0.09650000
C        1.42090000       0.88120000       0.18820000
O        2.03910000       0.34120000       1.33570000
C        1.57760000      -1.03420000       1.30360000
C        0.07230000      -0.83000000       1.13530000
C        0.21320000       0.05710000      -0.11750000
O        0.18350000      -0.65550000      -1.31360000
C        1.02300000      -1.82440000      -1.14740000
C        2.07370000      -1.76360000       0.01020000
H       -0.51500000       1.83920000       0.97940000
H       -0.07900000       2.18020000      -0.76360000
H        2.10290000       1.14630000      -0.61370000
H        1.92810000      -1.51160000       2.22130000
H       -0.50610000      -1.73390000       0.93450000
H       -0.35960000      -0.30860000       1.99170000
H        0.36530000      -2.68660000      -0.97730000
H        1.52730000      -1.98660000      -2.10470000
H        2.99780000      -1.27960000      -0.31790000
H        2.33030000      -2.80150000       0.24840000
