13
Properties=species:S:1:pos:R:3 gdb_127782=T pbc="F F F"
C        0.04990000       1.42550000      -0.01030000
N        0.01530000      -0.01870000       0.05550000
N       -0.11870000      -0.77670000      -1.09700000
N       -0.12920000      -2.03170000      -0.82870000
C       -0.00010000      -2.15730000       0.54150000
C        0.08010000      -2.98660000       1.62440000
O        0.20910000      -2.23200000       2.72640000
N        0.22040000      -0.84870000       2.42160000
C        0.09300000      -0.86690000       1.11280000
H        0.99510000       1.80620000       0.38700000
H       -0.04470000       1.70430000      -1.05990000
H       -0.77800000       1.85650000       0.56000000
H        0.06420000      -4.05260000       1.78300000
