22
Properties=species:S:1:pos:R:3 gdb_106110=T pbc="F F F"
C        0.11340000       1.48100000       0.34310000
C       -0.11720000       0.01260000      -0.03430000
C        0.55800000      -0.43620000      -1.29050000
C        0.93270000      -1.78500000      -1.78100000
C        0.35140000      -1.51820000      -3.16850000
C        0.53290000      -0.01710000      -2.82520000
C        2.06560000       0.09330000      -2.69420000
C        2.64210000       1.46390000      -2.39540000
N        2.00410000      -0.76620000      -1.46000000
H        1.17440000       1.67680000       0.52250000
H       -0.22770000       2.15550000      -0.44950000
H       -0.43520000       1.73590000       1.25500000
H        0.23670000      -0.63550000       0.77710000
H       -1.19510000      -0.17590000      -0.13080000
H        0.98780000      -2.71750000      -1.23350000
H        0.87060000      -1.89950000      -4.05520000
H       -0.70100000      -1.81260000      -3.20310000
H       -0.07190000       0.75120000      -3.30560000
H        2.63560000      -0.37800000      -3.50650000
H        2.07380000       1.98150000      -1.61790000
H        3.67840000       1.37530000      -2.05490000
H        2.62980000       2.08570000      -3.29710000
