22
Properties=species:S:1:pos:R:3 gdb_120973=T pbc="F F F"
O       -0.41040000       1.44340000      -0.41550000
C       -0.13320000       0.08140000      -0.12590000
C       -1.45020000      -0.68360000      -0.18950000
C       -1.30130000      -2.18080000       0.12760000
C       -2.65710000      -2.92450000       0.30980000
C       -2.78710000      -3.84520000      -0.89260000
C       -2.65710000      -3.25130000      -2.24660000
N       -1.51050000      -3.93130000      -1.62550000
C       -0.56100000      -3.01860000      -0.96320000
H        0.41820000       1.93060000      -0.39350000
H        0.58920000      -0.33650000      -0.84530000
H        0.30910000      -0.03180000       0.87830000
H       -2.13740000      -0.22320000       0.53040000
H       -1.89070000      -0.52570000      -1.18080000
H       -0.73610000      -2.25040000       1.06430000
H       -2.64800000      -3.52430000       1.22550000
H       -3.49680000      -2.22690000       0.39400000
H       -3.33340000      -4.77620000      -0.76650000
H       -3.07200000      -3.76540000      -3.10940000
H       -2.64230000      -2.16830000      -2.33680000
H       -0.07030000      -2.38970000      -1.71410000
H        0.21560000      -3.64040000      -0.50560000
