19
Properties=species:S:1:pos:R:3 gdb_39906=T pbc="F F F"
C       -0.14500000       1.44760000       0.15380000
C        1.25410000       0.92140000      -0.02550000
C        0.08310000      -0.04160000       0.02110000
C       -0.30970000      -0.97150000       1.12840000
C       -0.55260000      -2.19670000       0.60930000
C       -2.00910000      -2.48290000       0.20560000
C       -1.50250000      -1.92690000      -1.17610000
C       -0.07950000      -2.28380000      -0.85830000
C       -0.32350000      -0.86080000      -1.19830000
H       -0.43060000       1.83810000       1.12520000
H       -0.61390000       1.95220000      -0.68500000
H        1.74330000       1.07700000      -0.98180000
H        1.92350000       0.93690000       0.82720000
H       -0.84070000      -0.59090000       1.99760000
H       -2.28660000      -3.53600000       0.07910000
H       -2.79000000      -1.95020000       0.75610000
H       -2.01500000      -2.11400000      -2.11710000
H        0.58600000      -3.01030000      -1.30590000
H       -0.11700000      -0.48390000      -2.19890000
