23
Properties=species:S:1:pos:R:3 gdb_94566=T pbc="F F F"
C       -0.33650000       1.48980000      -0.11470000
C        0.01440000       0.00760000      -0.09340000
C        1.34530000      -0.39500000      -0.76660000
O        1.90620000      -0.84270000       0.48210000
C        0.66360000      -0.59820000       1.18850000
C        0.86370000       0.23750000       2.43070000
C       -0.34620000       0.44520000       3.38890000
C        0.61670000       0.24690000       4.59060000
C        1.63430000      -0.40980000       3.61890000
H        0.51200000       2.11300000       0.18430000
H       -0.62900000       1.79670000      -1.12490000
H       -1.17340000       1.71480000       0.55440000
H       -0.84100000      -0.57700000      -0.44190000
H        1.27780000      -1.20710000      -1.50240000
H        1.92450000       0.42920000      -1.20410000
H        0.19930000      -1.55490000       1.47690000
H        1.31960000       1.19710000       2.16880000
H       -0.89410000       1.38810000       3.31930000
H       -1.06390000      -0.37840000       3.30700000
H        0.98270000       1.20240000       4.97740000
H        0.25920000      -0.35060000       5.43250000
H        1.53870000      -1.50060000       3.60570000
H        2.69050000      -0.15780000       3.73150000
