12
Properties=species:S:1:pos:R:3 gdb_133483=T pbc="F F F"
C        0.02780000       1.43750000      -0.15530000
C        0.01760000      -0.00500000      -0.00510000
C        0.00360000      -1.20530000       0.12010000
C       -0.01910000      -2.63150000       0.27050000
O       -0.98030000      -3.28610000       0.58940000
C        1.34290000      -3.32270000      -0.01790000
F        1.73180000      -3.06240000      -1.27270000
F        2.28160000      -2.84930000       0.81180000
F        1.25410000      -4.63380000       0.13960000
H        1.03670000       1.80960000      -0.35890000
H       -0.62300000       1.74050000      -0.98270000
H       -0.34270000       1.92280000       0.75390000
