16
Properties=species:S:1:pos:R:3 gdb_2308=T pbc="F F F"
C        0.07780000       1.56810000      -0.17710000
C        0.04040000       0.06480000      -0.00240000
C        1.30500000      -0.75960000      -0.03850000
C        0.52330000      -0.64010000       1.24640000
C        1.09000000       0.12400000       2.43450000
C        1.98210000      -0.70420000       3.24860000
N        2.68000000      -1.36850000       3.88650000
H        0.99120000       2.01030000       0.23170000
H        0.04480000       1.82910000      -1.24010000
H       -0.77630000       2.05270000       0.30920000
H       -0.82960000      -0.40060000      -0.45870000
H        1.30890000      -1.71060000      -0.55880000
H        2.24570000      -0.21980000      -0.09880000
H       -0.04490000      -1.51690000       1.54210000
H        1.65120000       1.00380000       2.10460000
H        0.28260000       0.49280000       3.07900000
