19
Properties=species:S:1:pos:R:3 gdb_113095=T pbc="F F F"
C        0.57610000       1.26630000       0.21230000
O        0.46760000      -0.13660000       0.04990000
C        0.65400000      -0.56840000      -1.27180000
O        2.00710000      -0.45880000      -1.70120000
C        2.61480000      -1.76100000      -1.75540000
C        3.67410000      -1.86580000      -0.65210000
O        4.65120000      -0.85580000      -0.79500000
C        1.46360000      -2.71360000      -1.60660000
C        0.34960000      -2.04080000      -1.34680000
H        1.58610000       1.62420000      -0.02300000
H       -0.14260000       1.80060000      -0.42720000
H        0.35240000       1.48580000       1.25840000
H        0.05120000       0.06360000      -1.94450000
H        3.11570000      -1.84470000      -2.72950000
H        3.16750000      -1.81250000       0.32370000
H        4.19460000      -2.82770000      -0.71800000
H        4.16260000      -0.02640000      -0.85830000
H        1.57420000      -3.78790000      -1.68120000
H       -0.63790000      -2.43760000      -1.15580000
