15
Properties=species:S:1:pos:R:3 gdb_98941=T pbc="F F F"
N       -0.23930000       1.28960000      -0.34490000
C       -0.01510000      -0.09540000       0.01240000
C        0.90550000      -0.30830000       1.22800000
O        1.40420000       0.59900000       1.84060000
N        1.09120000      -1.66490000       1.53380000
C        1.85910000      -2.21490000       2.56590000
O        2.49560000      -1.58690000       3.37200000
C        1.80190000      -3.67220000       2.55790000
C        1.77060000      -4.87420000       2.57220000
H       -0.61920000       1.77990000       0.46060000
H        0.65850000       1.73510000      -0.51510000
H       -0.97820000      -0.58180000       0.21930000
H        0.41550000      -0.63070000      -0.84480000
H        0.61790000      -2.33490000       0.94400000
H        1.75460000      -5.93700000       2.60020000
