21
Properties=species:S:1:pos:R:3 gdb_22318=T pbc="F F F"
C        0.73850000       1.04460000      -0.67570000
C       -0.16060000       0.27440000       0.26710000
C        0.13180000      -1.13970000       0.64170000
N        0.21900000      -0.07580000       1.63840000
C        1.54750000       0.27340000       2.13830000
C        1.84970000      -0.51690000       3.38910000
C        0.93450000      -0.39330000       4.57340000
N        2.90000000      -1.24360000       3.33450000
O        3.13680000      -1.92050000       4.54250000
H        1.76820000       0.67990000      -0.66650000
H        0.36430000       0.95000000      -1.70060000
H        0.75210000       2.11210000      -0.42820000
H       -1.20890000       0.56380000       0.19660000
H       -0.66710000      -1.86360000       0.78120000
H        1.06670000      -1.56270000       0.27520000
H        2.36220000       0.09830000       1.42310000
H        1.53670000       1.34460000       2.38390000
H       -0.05430000      -0.06990000       4.24430000
H        0.85950000      -1.34370000       5.10520000
H        1.32750000       0.34480000       5.28370000
H        3.91960000      -2.43940000       4.33050000
