17
Properties=species:S:1:pos:R:3 gdb_52533=T pbc="F F F"
C        0.16470000       1.50310000      -0.03160000
C        0.05710000       0.05480000      -0.00730000
C       -0.05430000      -1.14730000       0.00990000
C       -0.16280000      -2.59350000       0.03240000
O       -1.22240000      -3.17720000       0.04020000
C        1.18410000      -3.30980000       0.08590000
C        1.80370000      -3.39650000       1.50900000
C        1.58010000      -4.91320000       1.33390000
O        1.07760000      -4.73090000      -0.00750000
H        1.20580000       1.83070000       0.05320000
H       -0.24140000       1.90380000      -0.96680000
H       -0.40180000       1.94920000       0.79290000
H        1.84300000      -2.88680000      -0.68450000
H        2.84510000      -3.08040000       1.57080000
H        1.23000000      -2.91560000       2.30240000
H        2.48230000      -5.53490000       1.34850000
H        0.82450000      -5.35660000       1.99220000
