23
Properties=species:S:1:pos:R:3 gdb_111678=T pbc="F F F"
C       -0.34560000       0.58510000      -0.93650000
C        0.16510000      -0.78460000      -0.47880000
C        1.22270000      -1.41370000      -1.42430000
C        2.16150000      -2.26860000      -0.53440000
C        1.97700000      -1.76420000       0.89400000
C        2.18220000      -0.29970000       1.20200000
C        3.00050000       0.66240000       0.37840000
O        4.36130000       0.49230000       0.76960000
C        0.78900000      -0.82490000       0.91510000
H        0.46910000       1.31510000      -0.99350000
H       -0.80720000       0.52280000      -1.92830000
H       -1.09750000       0.98040000      -0.24520000
H       -0.69830000      -1.46340000      -0.43740000
H        0.75020000      -2.01170000      -2.20960000
H        1.78050000      -0.62760000      -1.94190000
H        1.86720000      -3.32330000      -0.57270000
H        3.20330000      -2.22010000      -0.86990000
H        2.15270000      -2.47070000       1.69840000
H        2.34390000      -0.11200000       2.26180000
H        2.88450000       0.49030000      -0.69810000
H        2.66280000       1.69210000       0.58090000
H        4.88520000       1.15810000       0.31400000
H        0.09680000      -0.82030000       1.75190000
