14
Properties=species:S:1:pos:R:3 gdb_124283=T pbc="F F F"
C       -0.02620000       1.46900000       0.06460000
C        0.01680000      -0.03590000       0.00580000
O        0.05040000      -0.73500000       1.01620000
C        0.02010000      -0.70480000      -1.28780000
N       -0.01210000      -0.13930000      -2.50590000
N        0.00840000      -1.17440000      -3.31000000
N        0.05160000      -2.39790000      -2.75680000
C        0.05960000      -2.11490000      -1.45910000
O        0.09900000      -3.03840000      -0.50830000
H        0.83550000       1.89040000      -0.46320000
H       -0.91950000       1.84020000      -0.44810000
H       -0.02620000       1.79460000       1.10500000
H       -0.00760000      -1.06470000      -4.31160000
H        0.09460000      -2.53610000       0.33300000
