18
Properties=species:S:1:pos:R:3 gdb_22146=T pbc="F F F"
C       -0.57570000       0.92020000      -0.44800000
C        0.10040000      -0.38450000      -0.13280000
C       -0.07670000      -0.96600000       1.24660000
N        0.78840000      -2.10770000       1.49330000
C        0.39190000      -2.94760000       2.60420000
C       -0.94530000      -3.57470000       2.47160000
N       -1.99260000      -4.04060000       2.31980000
N        0.79720000      -1.05770000      -0.96290000
O        0.86830000      -0.43420000      -2.21540000
H       -1.21640000       1.24440000       0.37500000
H        0.17090000       1.69840000      -0.63950000
H       -1.17530000       0.82850000      -1.35790000
H        0.13560000      -0.18060000       1.98790000
H       -1.15180000      -1.20450000       1.36260000
H        0.90290000      -2.63830000       0.63690000
H        1.13130000      -3.74410000       2.73580000
H        0.39600000      -2.35950000       3.53010000
H        1.41210000      -1.04820000      -2.72010000
