20
Properties=species:S:1:pos:R:3 gdb_117224=T pbc="F F F"
C       -0.00340000       1.20100000      -0.45030000
C       -0.07790000       0.02690000       0.52880000
N       -1.37850000      -0.62680000       0.53820000
C       -1.62330000      -1.79950000      -0.10390000
O       -0.74130000      -2.40780000      -0.71690000
C       -3.00790000      -2.32690000       0.00280000
C       -3.57490000      -3.05610000      -1.22030000
C       -3.15660000      -3.85800000      -0.03580000
O       -2.05010000      -4.68160000      -0.04900000
H        0.98710000       1.66530000      -0.41290000
H       -0.18570000       0.85980000      -1.47310000
H       -0.74450000       1.97060000      -0.20850000
H        0.64810000      -0.74170000       0.25740000
H        0.15190000       0.36300000       1.54650000
H       -2.15330000      -0.14800000       0.96760000
H       -3.70240000      -1.76750000       0.62170000
H       -4.62980000      -2.92060000      -1.43230000
H       -2.92230000      -3.08580000      -2.08640000
H       -3.93810000      -4.26430000       0.59920000
H       -1.32000000      -4.15240000      -0.42290000
