20
Properties=species:S:1:pos:R:3 gdb_65033=T pbc="F F F"
C       -0.00110000       1.47060000      -0.49350000
C       -0.01510000       0.02060000      -0.05300000
C        1.16790000      -0.82870000      -0.33680000
N        0.86780000      -0.40220000       1.04460000
C       -1.39530000      -0.60990000      -0.02540000
O       -1.88910000      -0.53070000      -1.34840000
C       -1.56630000      -1.98440000       0.67120000
O       -2.51330000      -1.43870000       1.61380000
C       -2.36070000      -0.11030000       1.08450000
H        1.02320000       1.85400000      -0.53920000
H       -0.45610000       1.57620000      -1.48100000
H       -0.56500000       2.09930000       0.20580000
H        1.05180000      -1.89320000      -0.52150000
H        2.00720000      -0.37180000      -0.85390000
H        1.47740000       0.36570000       1.31440000
H       -2.78800000      -0.87600000      -1.35720000
H       -2.01280000      -2.75520000       0.02900000
H       -0.67660000      -2.37720000       1.17150000
H       -1.92240000       0.57720000       1.81850000
H       -3.30640000       0.30970000       0.71480000
