20
Properties=species:S:1:pos:R:3 gdb_92297=T pbc="F F F"
C       -0.90910000       1.20950000      -0.03270000
C       -0.09730000      -0.07350000      -0.03540000
C        1.09720000      -0.19660000      -1.03620000
C        2.00670000      -0.53530000       0.17960000
C        3.14360000       0.39060000       0.66100000
C        2.74500000       0.66580000       2.12780000
C        1.20270000       0.61580000       2.09840000
O        0.43360000       1.22930000       2.80480000
N        0.87640000      -0.25310000       1.07990000
H       -0.26130000       2.09140000      -0.04440000
H       -1.54660000       1.23830000      -0.92270000
H       -1.54010000       1.27220000       0.85640000
H       -0.76920000      -0.93760000      -0.08780000
H        1.00720000      -0.96750000      -1.80330000
H        1.34880000       0.75640000      -1.51030000
H        2.30960000      -1.58930000       0.20970000
H        4.13500000      -0.05510000       0.55320000
H        3.13460000       1.32610000       0.09050000
H        3.12340000      -0.11220000       2.80100000
H        3.07530000       1.63020000       2.51570000
