18
Properties=species:S:1:pos:R:3 gdb_108763=T pbc="F F F"
C       -0.22280000       1.36500000      -0.02730000
N        0.04080000      -0.05660000       0.05220000
C        0.70620000      -0.62530000       1.07600000
C        1.35800000      -0.05860000       2.12690000
C        1.88470000      -1.08850000       3.01300000
O        2.55180000      -0.94620000       4.01700000
C        1.41140000      -2.45550000       2.46680000
C        0.80170000      -2.14660000       1.09320000
O       -0.44200000      -2.76710000       0.78150000
H        0.71760000       1.92630000      -0.04070000
H       -0.76170000       1.57990000      -0.95170000
H       -0.82100000       1.72340000       0.82170000
H       -0.53770000      -0.68520000      -0.48440000
H        1.48040000       0.99780000       2.32300000
H        2.23400000      -3.17320000       2.43570000
H        0.65300000      -2.86580000       3.14430000
H        1.46820000      -2.46800000       0.28470000
H       -1.03960000      -2.61390000       1.52280000
