13
Properties=species:S:1:pos:R:3 gdb_16789=T pbc="F F F"
O        0.05620000      -0.01470000      -0.10630000
C        0.00060000       1.18520000      -0.05890000
C       -1.26290000       2.05260000      -0.08370000
C       -0.80350000       3.34850000      -0.76120000
O       -1.46830000       4.08690000      -1.43790000
C        0.68180000       3.47110000      -0.52400000
N        1.01660000       3.21760000       0.89480000
C        1.18310000       2.12240000      -0.08620000
H       -2.09800000       1.57560000      -0.59690000
H       -1.56130000       2.27640000       0.94730000
H        1.27380000       4.15860000      -1.11670000
H        1.93250000       3.61990000       1.08550000
H        2.16950000       1.74870000      -0.33430000
