16
Properties=species:S:1:pos:R:3 gdb_31195=T pbc="F F F"
C       -0.34230000       1.61540000      -0.14200000
C        0.10590000       0.15430000       0.03840000
C        0.86890000      -0.37660000      -1.11970000
C        2.14190000      -0.84420000      -1.29190000
N        2.31760000      -1.21190000      -2.63370000
C        1.18030000      -0.95340000      -3.17800000
O        0.24580000      -0.44530000      -2.33520000
C        3.15810000      -0.96310000      -0.31650000
C        4.01290000      -1.05920000       0.52570000
H        0.52040000       2.27670000      -0.26350000
H       -0.97850000       1.72160000      -1.02490000
H       -0.91060000       1.94970000       0.73050000
H        0.74670000       0.05730000       0.91990000
H       -0.77410000      -0.47820000       0.21360000
H        0.88200000      -1.08890000      -4.20570000
H        4.77310000      -1.14750000       1.26170000
