13
Properties=species:S:1:pos:R:3 gdb_49335=T pbc="F F F"
N       -0.11640000       1.27750000       0.00720000
C        0.00530000       0.02210000       0.00010000
C       -1.17600000      -0.92450000       0.00230000
O       -0.61430000      -2.23740000      -0.00730000
C        0.73980000      -2.19840000      -0.01540000
O        1.44290000      -3.15380000      -0.02380000
N        1.13430000      -0.82510000      -0.01070000
C        2.46660000      -0.38090000      -0.01650000
O        3.43380000      -1.08390000      -0.02550000
H        0.76410000       1.78860000       0.00470000
H       -1.79000000      -0.79400000       0.89730000
H       -1.80030000      -0.78540000      -0.88420000
H        2.51320000       0.72240000      -0.01150000
