21
Properties=species:S:1:pos:R:3 gdb_96013=T pbc="F F F"
O        0.13860000       1.27220000      -0.45100000
C        0.03160000      -0.06670000      -0.00440000
C        0.50040000      -0.28130000       1.45150000
C       -0.33490000      -1.46000000       1.96340000
C       -1.72320000      -1.17280000       1.36870000
C       -1.43140000      -0.66850000      -0.06130000
C       -2.41670000       0.33560000      -0.61540000
C       -3.78380000       0.51510000      -0.11370000
O       -2.75180000       1.44280000       0.23960000
H       -0.46820000       1.80810000       0.07380000
H        0.67460000      -0.62940000      -0.68820000
H        1.58060000      -0.43110000       1.52520000
H        0.25640000       0.62130000       2.02710000
H        0.05830000      -2.40630000       1.57070000
H       -0.34530000      -1.54050000       3.05390000
H       -2.39050000      -2.03890000       1.38570000
H       -2.19870000      -0.37060000       1.94520000
H       -1.42440000      -1.52100000      -0.75150000
H       -2.22100000       0.63920000      -1.64320000
H       -4.55180000       0.91110000      -0.77620000
H       -4.15060000      -0.10450000       0.70210000
