13
Properties=species:S:1:pos:R:3 gdb_56727=T pbc="F F F"
O        0.61550000       1.49300000      -0.09520000
C        0.11500000       0.18590000       0.02900000
C        0.37100000      -0.61930000      -1.18360000
N        0.57440000      -1.24120000      -2.13520000
C        0.69740000      -0.49360000       1.27600000
C        1.23200000      -1.87030000       1.28240000
O        2.10180000      -0.73900000       1.19850000
C        0.23320000       0.08890000       2.52350000
N       -0.16730000       0.54340000       3.50680000
H        1.57910000       1.43840000      -0.14780000
H       -0.96910000       0.28480000       0.15030000
H        1.26110000      -2.40860000       2.22650000
H        1.15360000      -2.46820000       0.37840000
