17
Properties=species:S:1:pos:R:3 gdb_51138=T pbc="F F F"
O        0.06690000       0.01850000      -0.25290000
C        0.11820000       1.20890000      -0.31820000
O        1.05820000       1.93100000       0.33360000
C        0.97860000       3.33560000       0.21120000
C        1.26040000       3.97010000      -1.12260000
C        2.24960000       4.13090000       0.02670000
C        2.06810000       5.34630000       0.87290000
C        0.89090000       5.33660000       1.50360000
C        0.10540000       4.07240000       1.22630000
H       -0.57300000       1.84010000      -0.90670000
H        1.55690000       3.29650000      -1.91990000
H        0.67950000       4.83200000      -1.43450000
H        3.21200000       3.64020000      -0.05960000
H        2.80720000       6.13660000       0.92820000
H        0.51120000       6.12490000       2.14270000
H       -0.90360000       4.27500000       0.84620000
H       -0.01260000       3.46000000       2.13000000
