19
Properties=species:S:1:pos:R:3 gdb_40442=T pbc="F F F"
C       -0.00790000       1.50830000      -0.02110000
N        1.25020000       0.74350000      -0.02070000
C       -0.03210000       0.02350000       0.05480000
C       -0.31700000      -0.72690000       1.31270000
C        0.08510000      -0.16350000       2.66920000
O       -0.02880000      -1.25460000       3.58210000
C        0.28080000      -2.45210000       2.87400000
C       -0.19850000      -2.20460000       1.45660000
N       -1.51860000      -1.57720000       1.31050000
H       -0.17560000       2.10700000       0.87000000
H       -0.34220000       1.97480000      -0.94390000
H        1.63220000       0.68740000      -0.96030000
H       -0.38020000      -0.49650000      -0.83480000
H        1.11290000       0.22190000       2.61330000
H       -0.57350000       0.63140000       3.03550000
H        1.36370000      -2.65760000       2.87280000
H       -0.22750000      -3.27590000       3.38700000
H        0.11990000      -2.86290000       0.65440000
H       -1.97860000      -1.52860000       2.21900000
