19
Properties=species:S:1:pos:R:3 gdb_115544=T pbc="F F F"
C        0.05110000       1.44600000      -0.32170000
N       -0.05570000       0.11660000       0.26350000
C       -1.32990000      -0.50980000       0.08860000
C       -1.88400000      -1.02450000      -1.28850000
C       -2.45660000      -2.25320000      -0.53540000
C       -1.44770000      -1.97230000       0.62020000
O       -0.19910000      -2.60800000       0.41360000
C       -1.91880000      -2.17100000       1.99520000
N       -2.31540000      -2.35000000       3.06630000
H        1.05610000       1.83920000      -0.14490000
H       -0.14610000       1.48690000      -1.40690000
H       -0.66000000       2.11980000       0.17000000
H        0.67730000      -0.49600000      -0.07470000
H       -2.09840000       0.10340000       0.57260000
H       -2.59310000      -0.38670000      -1.81810000
H       -1.07230000      -1.30500000      -1.96380000
H       -3.49000000      -2.10840000      -0.21310000
H       -2.35750000      -3.23580000      -1.00130000
H       -0.30270000      -3.55060000       0.58470000
