16
Properties=species:S:1:pos:R:3 gdb_36068=T pbc="F F F"
C       -0.67870000      -0.48620000      -1.14010000
C       -0.15990000       0.13540000      -0.25240000
C        0.47880000       0.90970000       0.80880000
C        1.63270000       1.73330000       0.31770000
C        1.73550000       2.95550000      -0.63540000
C        3.22330000       2.63680000      -0.83920000
C        2.77540000       3.51100000       0.30220000
N        2.65150000       2.32250000       1.25620000
C        3.07290000       1.42590000       0.11270000
H       -1.13940000      -1.04320000      -1.91780000
H       -0.26060000       1.56750000       1.28560000
H        0.84950000       0.24360000       1.59840000
H        1.04110000       3.43900000      -1.30690000
H        3.85400000       2.84250000      -1.69160000
H        3.03150000       4.51910000       0.60210000
H        3.64800000       0.52120000       0.27120000
