16
Properties=species:S:1:pos:R:3 gdb_9249=T pbc="F F F"
C        0.07670000       1.48750000       0.23180000
C        0.05460000      -0.03010000       0.04450000
C        0.65180000      -0.45610000      -1.31490000
O        1.98620000       0.00320000      -1.49150000
C        0.55130000      -1.90660000      -1.49190000
C        0.51580000      -3.11100000      -1.59050000
C        0.43270000      -4.54200000      -1.72900000
O        1.36170000      -5.30000000      -1.56910000
H        1.09390000       1.87370000       0.13250000
H       -0.54600000       1.98680000      -0.51850000
H       -0.30400000       1.76160000       1.21960000
H        0.62460000      -0.52520000       0.84070000
H       -0.96930000      -0.41540000       0.10870000
H        0.08150000       0.03620000      -2.11340000
H        2.55660000      -0.52030000      -0.91670000
H       -0.57700000      -4.91180000      -2.00050000
