15
Properties=species:S:1:pos:R:3 gdb_50880=T pbc="F F F"
N        0.00200000       1.60120000      -0.02500000
C        0.06610000       0.34160000      -0.05960000
N       -1.04950000      -0.49430000      -0.11340000
C       -2.39240000      -0.15470000      -0.13910000
O       -2.86370000       0.94840000      -0.11960000
O        1.15620000      -0.48820000      -0.05480000
C        2.43880000       0.13820000      -0.00310000
C        3.46480000      -0.89100000      -0.00580000
C        4.33840000      -1.71380000      -0.00640000
H        0.91390000       2.04550000       0.01210000
H       -0.82880000      -1.47840000      -0.13650000
H       -3.00290000      -1.08000000      -0.18220000
H        2.56330000       0.80340000      -0.86870000
H        2.51680000       0.75240000       0.90450000
H        5.10950000      -2.44450000      -0.00710000
