23
Properties=species:S:1:pos:R:3 gdb_71391=T pbc="F F F"
C       -0.04830000       1.47280000       0.06190000
C       -0.01380000      -0.02350000      -0.03820000
C       -0.66450000      -0.89380000      -1.11730000
C       -0.40400000      -2.09050000      -0.16740000
C       -0.33050000      -1.05160000       1.02540000
C        1.10800000      -0.86240000       0.60800000
C        1.15620000      -2.23690000      -0.07340000
C        1.52800000      -3.34290000       0.91950000
C        1.97110000      -2.38820000      -1.35790000
H        0.55100000       1.94060000      -0.72840000
H       -1.07220000       1.85390000      -0.02880000
H        0.34920000       1.81600000       1.02330000
H       -1.73480000      -0.67210000      -1.18520000
H       -0.24200000      -0.92230000      -2.12790000
H       -1.02830000      -2.98270000      -0.20600000
H       -0.82640000      -0.97230000       1.98230000
H        1.89810000      -0.37580000       1.16990000
H        0.93670000      -3.27190000       1.83750000
H        1.35570000      -4.33250000       0.48010000
H        2.58700000      -3.28620000       1.19670000
H        3.04320000      -2.40020000      -1.12880000
H        1.73620000      -3.33120000      -1.86630000
H        1.79790000      -1.57150000      -2.06190000
