18
Properties=species:S:1:pos:R:3 gdb_47827=T pbc="F F F"
O       -0.16910000       0.57640000       1.33430000
C       -0.16770000       1.32280000       0.39250000
O       -1.34900000       1.81600000      -0.06480000
C       -1.62090000       1.99200000      -1.46120000
C       -0.91910000       3.17860000      -2.10520000
C        0.55300000       2.90520000      -2.42830000
N        1.46550000       2.59770000      -1.33750000
C        1.43520000       3.28610000      -0.07470000
C        1.15080000       1.80380000      -0.16010000
H       -1.38560000       1.06430000      -2.00010000
H       -2.70430000       2.12780000      -1.49510000
H       -1.43040000       3.40490000      -3.04960000
H       -1.04040000       4.06210000      -1.46830000
H        0.60630000       2.06080000      -3.12760000
H        0.97970000       3.77000000      -2.94920000
H        2.39070000       3.62320000       0.31910000
H        0.58710000       3.92370000       0.16970000
H        1.93780000       1.11690000       0.13590000
