22
Properties=species:S:1:pos:R:3 gdb_121445=T pbc="F F F"
C        1.40950000       1.14250000       0.24440000
C        0.42880000       0.42380000      -0.69630000
C       -0.79130000      -0.09590000       0.02590000
O       -0.41470000      -1.00530000       0.97650000
C       -1.25050000      -2.11730000       1.29030000
N       -1.94520000       0.34070000      -0.25430000
C       -3.16690000       0.05840000       0.48520000
C       -4.15640000       1.18290000       0.15790000
O       -4.33210000       1.30570000      -1.23550000
H        2.28270000       1.49360000      -0.31260000
H        0.93580000       2.01070000       0.71320000
H        1.75340000       0.47250000       1.03610000
H        0.08390000       1.09860000      -1.48160000
H        0.93920000      -0.42300000      -1.17100000
H       -0.58470000      -2.89570000       1.67000000
H       -1.99070000      -1.87820000       2.05840000
H       -1.76230000      -2.48850000       0.39750000
H       -3.60710000      -0.89260000       0.15940000
H       -3.00700000       0.00890000       1.57050000
H       -5.13570000       0.96430000       0.59770000
H       -3.78890000       2.12250000       0.60340000
H       -3.43270000       1.28550000      -1.59250000
