16
Properties=species:S:1:pos:R:3 gdb_76998=T pbc="F F F"
C       -0.20530000       1.50400000      -0.00530000
C        0.06160000       0.00070000       0.02980000
C        0.84540000      -0.57610000      -1.18400000
C        1.88260000      -1.49820000      -0.55650000
C        1.91550000      -1.40290000       0.77410000
C        0.90050000      -0.43210000       1.25010000
O        0.74070000      -0.03180000       2.37740000
C        0.00580000      -1.25890000      -2.16900000
N       -0.65770000      -1.80160000      -2.94420000
H        0.72410000       2.06710000      -0.14230000
H       -0.88980000       1.76790000      -0.81610000
H       -0.64770000       1.81590000       0.94390000
H       -0.89200000      -0.53370000       0.11490000
H        1.36410000       0.23580000      -1.71290000
H        2.51610000      -2.12500000      -1.17290000
H        2.58900000      -1.91930000       1.44550000
