19
Properties=species:S:1:pos:R:3 gdb_40612=T pbc="F F F"
C        1.34820000       0.82880000       0.08430000
O        1.05770000      -0.22990000      -0.82400000
C        0.01260000       0.21460000       0.04890000
C       -0.44640000      -0.69560000       1.15780000
C       -1.73350000      -1.47130000       1.29880000
C       -2.21380000      -2.28840000       0.06730000
C       -1.33550000      -2.20920000      -1.15290000
C       -0.88130000      -3.01830000       0.02920000
C       -0.39560000      -2.20210000       1.25940000
H        2.02930000       0.56990000       0.89500000
H        1.51260000       1.80760000      -0.36510000
H       -0.77480000       0.76900000      -0.46340000
H       -0.19260000      -0.27210000       2.13040000
H       -2.38030000      -1.31310000       2.15330000
H       -3.20890000      -2.71250000       0.02870000
H       -1.69860000      -2.82390000      -1.97290000
H       -0.82850000      -1.31580000      -1.48590000
H       -0.70400000      -4.08370000      -0.03900000
H        0.12570000      -2.68140000       2.07880000
