19
Properties=species:S:1:pos:R:3 gdb_80849=T pbc="F F F"
C       -0.07790000       1.45640000      -0.00120000
C       -0.05010000      -0.03180000      -0.03220000
C       -0.03620000      -0.91230000      -1.04280000
C        0.01370000      -2.25160000      -0.29700000
O        0.97370000      -1.97230000       0.76800000
C       -0.01290000      -0.97690000       1.20020000
C        0.17040000      -0.43460000       2.58890000
C       -1.10200000      -2.04430000       0.78460000
O       -2.40760000      -1.70510000       0.46340000
H        0.80660000       1.85800000       0.50910000
H       -0.10650000       1.87730000      -1.01000000
H       -0.94970000       1.83160000       0.54950000
H       -0.04250000      -0.74830000      -2.11110000
H        0.18710000      -3.18050000      -0.83790000
H        1.09410000       0.14810000       2.66810000
H       -0.66880000       0.21550000       2.85670000
H        0.21730000      -1.25090000       3.31430000
H       -1.13740000      -2.86770000       1.50080000
H       -2.35720000      -1.01270000      -0.21040000
