18
Properties=species:S:1:pos:R:3 gdb_45239=T pbc="F F F"
O       -0.02720000      -0.06550000      -0.01550000
C       -0.01570000       1.14430000      -0.03660000
N       -1.12030000       1.98380000      -0.09470000
C       -0.69330000       3.34300000       0.25070000
C       -0.10920000       3.32620000       1.70130000
C        1.34070000       2.98060000       1.31250000
C        1.65990000       4.16570000       0.35920000
C        0.63780000       3.46050000      -0.55560000
C        1.16160000       2.10190000      -0.00670000
H       -2.01160000       1.62040000       0.21300000
H       -1.46710000       4.08080000       0.04220000
H       -0.16430000       4.29540000       2.20580000
H       -0.60850000       2.57930000       2.32350000
H        2.02230000       2.66450000       2.10040000
H        1.44960000       5.17870000       0.71560000
H        2.66850000       4.11750000      -0.05770000
H        0.54310000       3.65490000      -1.62330000
H        2.09370000       1.71130000      -0.40830000
