19
Properties=species:S:1:pos:R:3 gdb_67453=T pbc="F F F"
C       -0.01670000       1.53800000       0.04950000
C        0.02450000       0.03370000      -0.00600000
C        0.57820000      -0.87190000      -1.14810000
C        1.58330000      -1.51490000      -0.17450000
C        0.84910000      -0.81460000       1.01390000
O       -0.03770000      -1.63950000       1.75230000
C       -1.34490000      -1.61770000       1.17560000
C       -1.24420000      -0.83640000      -0.12570000
O       -0.66460000      -1.61000000      -1.20530000
H        0.99130000       1.96600000       0.02320000
H       -0.57750000       1.95420000      -0.79420000
H       -0.49560000       1.88320000       0.97360000
H        0.90430000      -0.53640000      -2.13520000
H        1.61530000      -2.60590000      -0.15400000
H        2.59400000      -1.11590000      -0.31070000
H        1.49140000      -0.28100000       1.71950000
H       -1.68660000      -2.64360000       0.99640000
H       -2.04630000      -1.13040000       1.86890000
H       -2.18380000      -0.36280000      -0.43040000
