19
Properties=species:S:1:pos:R:3 gdb_115893=T pbc="F F F"
O       -0.09450000       1.44780000      -0.08920000
C        0.02910000       0.03690000       0.01850000
C       -1.37300000      -0.54920000       0.04590000
C       -2.18710000      -0.25510000      -1.23370000
O       -3.09080000      -1.35060000      -1.41720000
C       -2.54350000      -2.46950000      -0.78010000
C       -1.11490000      -2.87670000      -1.09880000
C       -1.44670000      -2.07050000       0.14920000
O       -1.33750000      -2.65750000       1.40930000
H        0.78720000       1.82850000      -0.13750000
H        0.58930000      -0.38110000      -0.83380000
H        0.56710000      -0.24640000       0.93820000
H       -1.89720000      -0.15180000       0.92280000
H       -2.77590000       0.66140000      -1.16990000
H       -1.51850000      -0.16480000      -2.10250000
H       -3.28000000      -3.22420000      -0.53290000
H       -0.87920000      -3.92250000      -0.93190000
H       -0.59230000      -2.41600000      -1.93030000
H       -0.40240000      -2.78320000       1.60310000
