17
Properties=species:S:1:pos:R:3 gdb_79346=T pbc="F F F"
O        0.03600000       1.39100000       0.09520000
C        0.01500000      -0.01440000       0.04810000
C       -1.36420000      -0.61960000      -0.21310000
C       -1.44510000      -0.65870000      -1.73030000
O       -0.22820000      -0.14360000      -2.25790000
C        0.67560000      -0.60410000      -1.22670000
C        0.36870000      -2.10650000      -1.11400000
C       -1.14210000      -1.92470000      -0.96170000
O       -2.03000000      -2.97530000      -0.80840000
H       -0.24400000       1.69060000      -0.77940000
H        0.48480000      -0.37500000       0.96640000
H       -2.22490000      -0.44850000       0.41770000
H       -2.32880000      -0.47280000      -2.32360000
H        1.68950000      -0.28450000      -1.45630000
H        0.64140000      -2.66080000      -2.01810000
H        0.83860000      -2.57100000      -0.24310000
H       -2.07760000      -3.45430000      -1.64390000
