16
Properties=species:S:1:pos:R:3 gdb_64891=T pbc="F F F"
C       -0.11500000       1.53750000      -0.00180000
C       -0.01090000       0.02040000      -0.01440000
C        1.30410000      -0.64450000      -0.36070000
C        0.83430000      -0.69100000       1.07550000
N        1.52840000       0.15720000       2.00630000
C        0.35260000      -1.95840000       1.58960000
N        0.00730000      -2.95370000       2.06750000
C       -1.21120000      -0.65290000      -0.45010000
N       -2.18620000      -1.15670000      -0.81420000
H        0.79060000       1.97080000       0.42200000
H       -0.25140000       1.90740000      -1.02180000
H       -0.97200000       1.86210000       0.59480000
H        1.28150000      -1.56270000      -0.93370000
H        2.13980000       0.01750000      -0.55590000
H        0.98050000       0.29200000       2.85070000
H        2.40910000      -0.26810000       2.28010000
