16
Properties=species:S:1:pos:R:3 gdb_71425=T pbc="F F F"
O       -0.04880000       1.33860000      -0.02720000
C        0.04520000      -0.03320000      -0.04220000
C        0.87020000      -0.90780000      -0.98390000
C       -0.04900000      -2.06490000      -0.50090000
C       -1.11210000      -0.98720000      -0.04540000
C       -0.27330000      -0.87490000       1.21430000
C        0.35860000      -2.25590000       1.00240000
C       -0.36870000      -3.33030000       1.66520000
N       -0.94280000      -4.18680000       2.18830000
H        0.68020000       1.69450000       0.49350000
H        0.66900000      -0.65060000      -2.02690000
H        1.94990000      -1.01260000      -0.82410000
H       -0.24250000      -2.93190000      -1.12550000
H       -2.16940000      -0.86230000      -0.22120000
H       -0.54200000      -0.40010000       2.14860000
H        1.43040000      -2.36990000       1.20230000
