20
Properties=species:S:1:pos:R:3 gdb_32791=T pbc="F F F"
C       -0.06550000       1.60380000       0.02460000
C       -0.07640000       0.07360000       0.04470000
C        0.81670000      -0.52380000       1.14930000
C        0.80720000      -2.02340000       1.20380000
C        1.79100000      -2.87240000       0.74680000
O        3.00620000      -2.66000000       0.17360000
N        1.40630000      -4.16590000       0.94650000
C        0.15730000      -4.17980000       1.54110000
C       -0.23100000      -2.87750000       1.70750000
H        0.94450000       1.99290000      -0.14970000
H       -0.71300000       1.99850000      -0.76480000
H       -0.41470000       2.01540000       0.97840000
H       -1.10120000      -0.29050000       0.18660000
H        0.24870000      -0.31800000      -0.92720000
H        1.84520000      -0.15580000       1.00710000
H        0.50130000      -0.11300000       2.11820000
H        3.14880000      -1.70980000       0.12150000
H        1.96700000      -4.96420000       0.70650000
H       -0.32700000      -5.10990000       1.78680000
H       -1.16020000      -2.54810000       2.14860000
