14
Properties=species:S:1:pos:R:3 gdb_9572=T pbc="F F F"
N       -0.00220000       1.45540000       0.04850000
C        0.01130000       0.02090000       0.01820000
C       -0.44030000      -0.68560000       1.27850000
C       -1.35610000      -0.68960000       0.07650000
C       -2.56120000       0.08150000       0.04000000
C       -3.59310000       0.69540000      -0.01610000
C        1.02400000      -0.62580000      -0.79240000
N        1.84690000      -1.10250000      -1.45230000
H        0.89120000       1.81610000       0.36780000
H       -0.18180000       1.83770000      -0.87460000
H        0.03980000      -1.61840000       1.54730000
H       -0.70440000      -0.02670000       2.09590000
H       -1.39250000      -1.62360000      -0.47590000
H       -4.50000000       1.24620000      -0.05670000
