18
Properties=species:S:1:pos:R:3 gdb_88335=T pbc="F F F"
C       -0.62430000       1.42860000       0.47620000
N       -0.01970000       0.15520000       0.09250000
C        1.12150000       0.19430000      -0.80300000
C        1.31220000      -0.21050000       0.61890000
C        2.07420000       0.67950000       1.55000000
N        2.43750000       1.85400000       1.23110000
N        2.30290000       0.05850000       2.80350000
C        2.96210000       0.59400000       3.88180000
O        3.45560000       1.69800000       3.93350000
H        0.09210000       2.25250000       0.57920000
H       -1.35980000       1.68990000      -0.29070000
H       -1.15650000       1.29950000       1.42430000
H        1.14600000      -0.56510000      -1.58050000
H        1.53290000       1.16510000      -1.06960000
H        1.38960000      -1.27260000       0.85070000
H        2.90860000       2.31450000       2.01010000
H        1.93430000      -0.87320000       2.92430000
H        2.99530000      -0.11770000       4.72900000
