18
Properties=species:S:1:pos:R:3 gdb_73256=T pbc="F F F"
C       -0.04680000       1.53560000      -0.00680000
C        0.02310000       0.01800000      -0.00270000
C       -1.22880000      -0.76530000       0.48260000
O       -0.43070000      -1.54590000       1.39860000
C        0.70610000      -0.68420000       1.20280000
C        1.98630000      -1.41850000       0.88040000
O        1.97380000      -2.04320000      -0.40780000
C        1.29040000      -1.40560000      -1.38380000
N        0.44660000      -0.46560000      -1.30680000
H        0.94640000       1.96780000      -0.16740000
H       -0.69190000       1.87840000      -0.82090000
H       -0.44000000       1.91600000       0.94110000
H       -1.96710000      -0.14840000       1.01180000
H       -1.72510000      -1.38210000      -0.27200000
H        0.87130000      -0.03360000       2.07400000
H        2.82210000      -0.70610000       0.91260000
H        2.17600000      -2.21600000       1.60330000
H        1.55510000      -1.82750000      -2.35210000
