20
Properties=species:S:1:pos:R:3 gdb_40559=T pbc="F F F"
C       -0.00030000       1.52100000       0.00340000
C        1.27760000       0.75370000      -0.12250000
C       -0.02900000       0.00610000       0.05620000
C       -0.30070000      -0.66560000       1.35290000
N        0.12530000      -0.20470000       2.45620000
C       -0.23500000      -0.87170000       3.69990000
C       -1.44950000      -1.79300000       3.55310000
C       -1.26120000      -2.62690000       2.29380000
O       -1.04780000      -1.79000000       1.15000000
H       -0.18430000       2.02880000       0.94280000
H       -0.41490000       1.99840000      -0.87750000
H        1.75930000       0.69200000      -1.09190000
H        1.94150000       0.75050000       0.73370000
H       -0.42990000      -0.52100000      -0.80050000
H        0.63220000      -1.44280000       4.06160000
H       -0.42460000      -0.10250000       4.45730000
H       -1.56890000      -2.44590000       4.42390000
H       -2.36400000      -1.19670000       3.45680000
H       -0.39760000      -3.29760000       2.40020000
H       -2.13810000      -3.23430000       2.05610000
