18
Properties=species:S:1:pos:R:3 gdb_126967=T pbc="F F F"
C        0.00840000       1.52100000       0.04210000
C       -0.04720000      -0.00250000       0.05420000
N        0.67460000      -0.53170000       1.20330000
C        0.86320000      -1.87180000       1.34570000
N        0.66720000      -2.74700000       0.38160000
O        1.05430000      -3.96480000       0.99720000
C        1.41280000      -3.66710000       2.24720000
C        1.86080000      -4.77730000       3.12910000
N        1.32090000      -2.40460000       2.53650000
H        1.04260000       1.87490000       0.00080000
H       -0.52780000       1.91380000      -0.82590000
H       -0.46070000       1.94160000       0.93920000
H       -1.09200000      -0.34880000       0.04610000
H        0.42070000      -0.41130000      -0.84690000
H        0.56740000      -0.04150000       2.07850000
H        1.07360000      -5.53040000       3.23000000
H        2.73950000      -5.27300000       2.70560000
H        2.10980000      -4.37940000       4.11240000
