18
Properties=species:S:1:pos:R:3 gdb_102267=T pbc="F F F"
N       -0.10650000       2.09710000       0.56420000
H       -0.30830000       0.52920000      -0.15760000
H        0.82620000       2.43420000       0.77680000
H       -0.47620000       2.69920000      -0.16620000
C       -0.96740000       2.14370000       1.75850000
C       -2.15960000       1.16190000       1.64290000
C       -1.73390000      -0.34010000       1.60670000
C       -1.48280000      -0.95720000       0.22430000
O       -0.64270000      -0.30540000      -0.58510000
O       -2.00330000      -1.99170000      -0.10660000
C       -3.06440000       1.40340000       2.76470000
C       -3.78010000       1.60460000       3.70910000
H       -0.36560000       1.85360000       2.62520000
H       -1.35420000       3.15080000       1.95640000
H       -2.70050000       1.39470000       0.71440000
H       -0.83030000      -0.46810000       2.21640000
H       -2.51570000      -0.94750000       2.06110000
H       -4.42850000       1.77710000       4.53230000
