20
Properties=species:S:1:pos:R:3 gdb_116399=T pbc="F F F"
C       -0.04360000       1.52770000       0.08220000
C       -0.00340000       0.00360000      -0.04840000
N        0.70470000      -0.45700000      -1.24310000
C       -0.08370000      -0.62900000      -2.45830000
C        0.81960000      -0.74310000      -3.67980000
C        1.98430000      -1.64780000      -3.31900000
O        2.72650000      -1.08710000      -2.23490000
C        2.06600000      -0.59900000      -1.14760000
O        2.69660000      -0.31100000      -0.15660000
H        0.97240000       1.91800000       0.17560000
H       -0.52130000       1.99630000      -0.78510000
H       -0.60960000       1.81780000       0.97320000
H        0.49660000      -0.42780000       0.82050000
H       -1.01870000      -0.40800000      -0.09270000
H       -0.71110000      -1.52920000      -2.36780000
H       -0.76670000       0.22270000      -2.56470000
H        0.25960000      -1.14550000      -4.52900000
H        1.20800000       0.24020000      -3.96540000
H        1.62910000      -2.65060000      -3.04240000
H        2.69900000      -1.75370000      -4.13820000
