14
Properties=species:S:1:pos:R:3 gdb_14503=T pbc="F F F"
O        0.00680000       1.42390000      -0.11090000
C        0.01550000       0.02720000      -0.00740000
C        0.97860000      -0.56090000      -0.95110000
N        1.77330000      -0.96960000      -1.68530000
C       -0.08470000      -0.68860000       1.39550000
C       -1.50900000      -0.09240000       1.52830000
C       -1.37910000      -0.66350000       0.09140000
N       -0.73340000      -1.87910000       0.72480000
H        0.91110000       1.75180000      -0.04620000
H        0.69700000      -0.79660000       2.14790000
H       -2.17410000      -0.65910000       2.17800000
H       -1.59580000       0.98620000       1.63230000
H       -2.12960000      -0.74030000      -0.69470000
H       -0.08280000      -2.32460000       0.06930000
