23
Properties=species:S:1:pos:R:3 gdb_59527=T pbc="F F F"
C        0.13390000       1.49430000      -0.10840000
C        0.09340000      -0.04160000      -0.07400000
C        0.93480000      -0.63410000      -1.21190000
C        0.52220000      -0.53120000       1.30940000
C        0.68810000      -2.04410000       1.59230000
C        2.12590000      -1.66820000       1.92410000
C        2.98000000      -2.07300000       3.08010000
C        3.40920000      -2.37500000       1.64740000
O        1.93450000      -0.29530000       1.57880000
H        1.15240000       1.85170000       0.07470000
H       -0.19000000       1.87560000      -1.08180000
H       -0.51700000       1.92870000       0.65780000
H       -0.95110000      -0.36430000      -0.20040000
H        1.98950000      -0.37740000      -1.07770000
H        0.85590000      -1.72430000      -1.26340000
H        0.60620000      -0.23600000      -2.17680000
H       -0.08790000      -0.02640000       2.07120000
H        0.09410000      -2.43230000       2.42190000
H        0.56840000      -2.69660000       0.72520000
H        3.51140000      -1.28350000       3.60060000
H        2.65160000      -2.89410000       3.70980000
H        3.37460000      -3.40180000       1.29680000
H        4.21970000      -1.78170000       1.23740000
