18
Properties=species:S:1:pos:R:3 gdb_4067=T pbc="F F F"
C       -0.02200000       1.49280000      -0.10960000
C        0.08680000      -0.02940000      -0.06630000
N        0.74470000      -0.48570000       1.14390000
C        2.20980000      -0.24940000       1.27120000
C        2.33940000      -1.68210000       1.73190000
C        0.90870000      -1.95160000       1.32450000
N        3.29200000      -2.30750000       2.27520000
O        2.92850000      -3.64080000       2.54300000
H        0.96830000       1.96080000      -0.10900000
H       -0.54100000       1.81690000      -1.01670000
H       -0.57100000       1.86330000       0.76080000
H       -0.91630000      -0.47260000      -0.08370000
H        0.60860000      -0.39160000      -0.97590000
H        2.71700000      -0.06660000       0.30890000
H        2.49400000       0.53890000       1.97560000
H        0.25000000      -2.40470000       2.07280000
H        0.84020000      -2.53600000       0.39210000
H        3.72250000      -3.98680000       2.96420000
