22
Properties=species:S:1:pos:R:3 gdb_120271=T pbc="F F F"
C       -0.27640000       1.44830000       0.18320000
O       -0.43580000       0.05360000       0.28580000
C       -0.94120000      -0.53170000      -0.89730000
C       -1.05210000      -2.02590000      -0.65260000
C       -2.18690000      -2.62730000       0.23990000
C       -3.21870000      -1.73330000       0.91870000
C       -2.58430000      -3.43140000      -1.00100000
C       -2.84990000      -2.56290000      -2.16110000
N       -1.44080000      -2.87320000      -1.83930000
H        0.11470000       1.80490000       1.13920000
H        0.43220000       1.72010000      -0.61510000
H       -1.23260000       1.95600000      -0.02150000
H       -1.90870000      -0.07550000      -1.15900000
H       -0.25970000      -0.35670000      -1.74770000
H       -0.07190000      -2.36860000      -0.31200000
H       -1.73810000      -3.28360000       0.99040000
H       -3.76390000      -1.10970000       0.20350000
H       -3.95790000      -2.33530000       1.45810000
H       -2.73050000      -1.06690000       1.63600000
H       -2.81830000      -4.49150000      -1.01170000
H       -3.17180000      -3.04280000      -3.08030000
H       -3.23850000      -1.55790000      -2.02590000
