18
Properties=species:S:1:pos:R:3 gdb_45149=T pbc="F F F"
O        0.36030000       0.08060000      -0.58200000
C        0.15800000       1.18100000      -0.16400000
C       -1.04580000       1.92610000       0.44540000
N       -0.22810000       3.17640000       0.54520000
C        0.47310000       3.30490000       1.86900000
C        1.72490000       2.62000000       1.30830000
C        3.16210000       2.99350000       1.51570000
C        2.65580000       1.64580000       1.97010000
C        0.99250000       2.46420000      -0.02800000
H       -1.88830000       2.03170000      -0.24720000
H       -1.42380000       1.52950000       1.39490000
H        0.60870000       4.35370000       2.15210000
H       -0.03470000       2.78480000       2.69030000
H        3.80970000       3.03270000       0.64570000
H        3.38230000       3.74110000       2.27150000
H        2.53390000       1.47580000       3.03520000
H        2.95220000       0.76650000       1.40780000
H        1.46590000       2.85880000      -0.93200000
