22
Properties=species:S:1:pos:R:3 gdb_105872=T pbc="F F F"
C       -0.47550000       1.32770000      -0.58450000
C        0.00950000      -0.09480000      -0.31960000
C        1.30960000      -0.66020000      -0.98940000
C        1.78920000      -1.13420000       0.39630000
N        1.92480000      -0.04510000       1.34160000
C        2.49270000       1.25620000       1.02010000
C        0.57940000      -0.50870000       1.05750000
C       -0.22330000      -0.98080000       2.24610000
O        0.60860000      -1.52290000       3.24590000
H        0.29580000       2.07920000      -0.40290000
H       -0.80310000       1.43340000      -1.62470000
H       -1.33160000       1.57150000       0.05420000
H       -0.81100000      -0.78540000      -0.54730000
H        1.10830000      -1.48590000      -1.67470000
H        1.95420000       0.06060000      -1.50180000
H        2.28660000      -2.07370000       0.61310000
H        2.38580000       1.56230000      -0.02710000
H        2.02610000       2.01860000       1.65120000
H        3.56220000       1.23210000       1.25410000
H       -0.82410000      -0.13760000       2.63470000
H       -0.93230000      -1.75740000       1.93120000
H        1.44330000      -1.03730000       3.15400000
