15
Properties=species:S:1:pos:R:3 gdb_117024=T pbc="F F F"
C        0.45240000       0.90700000       0.25050000
C       -0.61840000       0.17930000      -0.54660000
O       -0.04670000      -0.50390000      -1.68900000
C        0.43370000      -1.72340000      -1.47050000
O        0.43850000      -2.31840000      -0.42250000
C        1.01080000      -2.32620000      -2.77050000
O        1.05610000      -1.70900000      -3.80620000
C        1.49140000      -3.68180000      -2.62830000
C        1.90140000      -4.81150000      -2.56800000
H        1.15220000       0.19690000       0.69740000
H        1.00700000       1.60070000      -0.38720000
H       -0.01720000       1.47930000       1.05670000
H       -1.14460000      -0.55300000       0.07010000
H       -1.33780000       0.87470000      -0.98330000
H        2.26160000      -5.80970000      -2.50260000
