21
Properties=species:S:1:pos:R:3 gdb_117892=T pbc="F F F"
C       -0.27380000       1.41840000       0.16750000
C        0.04460000      -0.05790000      -0.00090000
O        0.64810000      -0.51570000       1.19530000
C        0.91980000      -1.91350000       1.22290000
C        2.22650000      -2.25620000       0.48730000
C        0.97180000      -2.34380000       2.61990000
C        1.02540000      -2.72940000       3.75830000
C        1.11050000      -3.17380000       5.14270000
O       -0.10710000      -3.80450000       5.52300000
H        0.64060000       1.98870000       0.35400000
H       -0.75030000       1.81110000      -0.73590000
H       -0.94950000       1.56920000       1.01390000
H       -0.87600000      -0.63150000      -0.20200000
H        0.71190000      -0.20520000      -0.86500000
H        0.08850000      -2.44990000       0.73400000
H        3.06290000      -1.72980000       0.95360000
H        2.41740000      -3.33180000       0.53390000
H        2.16710000      -1.96340000      -0.56460000
H        1.96480000      -3.86270000       5.24800000
H        1.32540000      -2.30190000       5.78190000
H       -0.01450000      -4.07290000       6.44290000
