21
Properties=species:S:1:pos:R:3 gdb_126736=T pbc="F F F"
C       -0.04630000       1.52860000      -0.54170000
C       -0.01580000       0.14110000       0.10050000
N       -1.32290000      -0.49240000       0.12440000
C       -1.77400000      -1.51310000      -0.64450000
C       -3.09280000      -1.72070000      -0.30170000
C       -3.36120000      -0.75870000       0.70100000
C       -4.62980000      -0.53960000       1.47070000
C       -4.87780000      -1.61380000       2.54330000
N       -2.27990000      -0.01740000       0.94900000
H        0.94910000       1.98200000      -0.50870000
H       -0.36540000       1.46930000      -1.58650000
H       -0.74360000       2.17450000      -0.00340000
H        0.65750000      -0.52790000      -0.44320000
H        0.34180000       0.20820000       1.13250000
H       -1.13180000      -2.00080000      -1.36170000
H       -3.76310000      -2.45990000      -0.71050000
H       -4.57710000       0.44680000       1.94170000
H       -5.47900000      -0.51830000       0.77690000
H       -5.81210000      -1.42170000       3.08060000
H       -4.94400000      -2.61120000       2.09680000
H       -4.06140000      -1.62860000       3.27170000
