15
Properties=species:S:1:pos:R:3 gdb_5133=T pbc="F F F"
C       -0.14060000      -0.99890000      -0.83100000
C       -0.04620000       0.03130000      -0.21830000
C        0.09130000       1.30710000       0.48100000
C        1.45160000       1.93320000       0.31960000
C        2.13940000       2.81290000       1.12620000
C        3.35930000       3.13470000       0.46720000
C        3.38010000       2.43960000      -0.71910000
N        2.21410000       1.72120000      -0.80020000
H       -0.23920000      -1.92220000      -1.34630000
H       -0.69440000       1.98730000       0.11940000
H       -0.10820000       1.16570000       1.54960000
H        1.80040000       3.18660000       2.08090000
H        4.13190000       3.79690000       0.82650000
H        4.12040000       2.38660000      -1.50090000
H        1.96930000       1.06600000      -1.52390000
