15
Properties=species:S:1:pos:R:3 gdb_83910=T pbc="F F F"
N        0.13740000       1.42740000       0.04060000
C        0.03770000       0.01310000       0.04900000
C       -0.47820000      -0.69880000       1.26650000
O       -1.20560000       0.09380000       2.17290000
C       -2.54350000       0.09050000       1.69160000
O       -2.45370000       0.05240000       0.27720000
C       -1.32700000      -0.74700000       0.00690000
C       -1.52850000      -1.91860000      -0.78800000
N       -1.65030000      -2.85940000      -1.45150000
H       -0.17890000       1.82520000      -0.83680000
H       -0.41390000       1.82490000       0.79270000
H        0.82670000      -0.51190000      -0.48480000
H        0.01660000      -1.56580000       1.68980000
H       -3.08280000      -0.79150000       2.06990000
H       -3.03700000       1.01660000       1.99380000
