19
Properties=species:S:1:pos:R:3 gdb_104598=T pbc="F F F"
N       -2.12420000       0.86400000      -1.67950000
C       -2.13530000      -0.50420000      -1.41900000
O       -2.57550000      -1.32020000      -2.20590000
N       -1.57430000      -0.83730000      -0.20010000
C       -1.31710000      -2.21270000       0.14390000
C       -0.21760000      -2.88430000      -0.65930000
O        1.01850000      -2.18380000      -0.56520000
C       -1.48120000      -2.55370000       1.60340000
C       -2.49090000      -3.03840000       0.59270000
H       -2.72220000       1.10640000      -2.45550000
H       -2.21420000       1.48620000      -0.88960000
H       -0.95090000      -0.16190000       0.21690000
H       -0.03990000      -3.89010000      -0.26380000
H       -0.54300000      -2.98060000      -1.70220000
H        0.99610000      -1.47290000      -1.21200000
H       -0.78610000      -3.26730000       2.03170000
H       -1.78300000      -1.75720000       2.27430000
H       -3.46360000      -2.56340000       0.57290000
H       -2.49650000      -4.08950000       0.32570000
