25
Properties=species:S:1:pos:R:3 gdb_119883=T pbc="F F F"
C        0.06410000       1.62030000       0.07170000
C        0.05400000       0.08950000       0.05150000
C        0.62500000      -0.49310000      -1.25630000
C        0.65360000      -2.00320000      -1.29510000
C       -0.22560000      -2.70590000      -2.01550000
C       -0.25250000      -4.20980000      -2.11090000
C        1.03760000      -4.84970000      -1.57870000
C        1.47020000      -4.18260000      -0.26890000
C        1.73400000      -2.68590000      -0.48130000
H        1.08340000       2.01140000      -0.02290000
H       -0.52360000       2.03100000      -0.75710000
H       -0.35690000       2.01070000       1.00360000
H        0.62480000      -0.28910000       0.90820000
H       -0.97110000      -0.27840000       0.18180000
H        0.03090000      -0.11600000      -2.09740000
H        1.64440000      -0.10320000      -1.39650000
H       -0.98600000      -2.17110000      -2.58330000
H       -1.12040000      -4.59660000      -1.55440000
H       -0.42200000      -4.51060000      -3.15290000
H        0.89810000      -5.92710000      -1.43940000
H        1.83540000      -4.72800000      -2.32310000
H        0.67540000      -4.30700000       0.47840000
H        2.36360000      -4.66860000       0.13850000
H        2.70080000      -2.54380000      -0.98900000
H        1.84390000      -2.18430000       0.48840000
