16
Properties=species:S:1:pos:R:3 gdb_19438=T pbc="F F F"
C       -0.00640000       1.46220000      -0.00550000
O        1.18280000       0.66460000      -0.06860000
C       -0.08590000       0.00130000       0.01940000
C       -0.38830000      -0.83980000       1.25860000
C       -0.28000000      -2.31210000       0.77980000
C       -0.56210000      -2.23840000      -0.71030000
O       -1.72850000      -1.46760000      -1.03300000
C       -0.44110000      -0.84750000      -1.16810000
H       -0.14320000       2.02170000       0.91920000
H       -0.25430000       2.00670000      -0.91590000
H        0.30510000      -0.60020000       2.06700000
H       -1.40350000      -0.62960000       1.60430000
H        0.73220000      -2.70510000       0.92910000
H       -0.97360000      -2.97590000       1.30390000
H       -0.36980000      -3.08680000      -1.36180000
H       -0.13950000      -0.55140000      -2.16880000
