21
Properties=species:S:1:pos:R:3 gdb_120660=T pbc="F F F"
C       -0.20160000       1.39890000      -0.09910000
C       -0.29830000      -0.09460000      -0.35550000
O       -1.29930000      -0.63100000       0.50110000
C       -1.48150000      -2.00050000       0.34050000
C       -2.74310000      -2.58240000       0.90380000
C       -2.55570000      -2.49550000      -0.58590000
C       -3.35580000      -1.68140000      -1.59390000
O       -3.17620000      -2.71340000      -2.59250000
C       -2.49930000      -3.57990000      -1.65460000
H        0.57130000       1.84420000      -0.73260000
H       -1.15450000       1.88940000      -0.31750000
H        0.05120000       1.59240000       0.94710000
H       -0.54760000      -0.29720000      -1.40790000
H        0.66650000      -0.58680000      -0.15090000
H       -0.56640000      -2.59290000       0.41580000
H       -2.69340000      -3.55300000       1.38720000
H       -3.44170000      -1.88320000       1.35290000
H       -4.41580000      -1.53420000      -1.34590000
H       -2.92650000      -0.72120000      -1.90450000
H       -1.50040000      -3.87130000      -2.00620000
H       -3.08300000      -4.48640000      -1.44170000
