20
Properties=species:S:1:pos:R:3 gdb_105378=T pbc="F F F"
O        0.74590000       0.07060000      -0.44640000
C       -0.15190000      -0.08480000       0.64450000
C       -1.55310000      -0.49310000       0.21650000
C       -1.77200000      -1.96380000      -0.10670000
C       -0.96850000      -2.44050000      -1.29760000
C        0.27470000      -3.22700000      -1.15920000
O       -0.95410000      -3.84800000      -1.52720000
C       -2.69100000       0.31950000       0.72550000
N       -2.27040000       0.43240000      -0.67910000
H        0.84750000      -0.78640000      -0.87280000
H        0.23720000      -0.80150000       1.38490000
H       -0.18540000       0.89620000       1.12960000
H       -1.53200000      -2.58600000       0.76390000
H       -2.83250000      -2.11700000      -0.33370000
H       -1.09630000      -1.84440000      -2.20210000
H        1.03490000      -3.19830000      -1.93990000
H        0.64350000      -3.47710000      -0.16440000
H       -3.66180000      -0.14490000       0.87730000
H       -2.47220000       1.13680000       1.40810000
H       -1.70960000       1.26940000      -0.82250000
