16
Properties=species:S:1:pos:R:3 gdb_12697=T pbc="F F F"
O        0.06750000       1.40400000       0.10120000
C       -0.00390000      -0.00630000       0.02300000
C       -1.46780000      -0.48780000      -0.07210000
C       -1.69850000      -0.85740000      -1.55930000
C       -0.33870000      -1.43920000      -1.99520000
O       -0.11120000      -1.52400000      -3.37090000
C        0.60750000      -0.47380000      -1.30420000
O        1.59180000      -0.00020000      -1.82170000
H        0.91930000       1.65930000      -0.27800000
H        0.52630000      -0.47400000       0.86770000
H       -1.61120000      -1.36690000       0.56370000
H       -2.14500000       0.29170000       0.28110000
H       -2.52340000      -1.55660000      -1.70750000
H       -1.90030000       0.03780000      -2.15740000
H       -0.21710000      -2.42970000      -1.51780000
H        0.71640000      -1.04780000      -3.53600000
