16
Properties=species:S:1:pos:R:3 gdb_78651=T pbc="F F F"
C       -0.19020000       1.45500000       0.00770000
C        0.07530000      -0.03670000      -0.00250000
C        0.93850000      -0.56210000      -1.15080000
C        2.14200000      -0.45010000      -0.27970000
N        1.22620000      -0.42480000       0.93920000
C        1.18490000      -1.91930000       0.81790000
O        1.07070000      -2.75640000       1.65670000
C        1.58090000      -1.85660000      -0.61730000
O        2.00390000      -2.82000000      -1.48600000
H        0.72540000       2.01990000      -0.19040000
H       -0.93060000       1.71630000      -0.75620000
H       -0.57780000       1.76050000       0.98350000
H       -0.84140000      -0.59790000       0.21720000
H        0.85880000      -0.41980000      -2.22320000
H        3.14740000      -0.06370000      -0.33890000
H        2.62960000      -3.39200000      -1.02560000
