15
Properties=species:S:1:pos:R:3 gdb_14943=T pbc="F F F"
O       -0.82780000       0.91270000       0.57200000
C        0.17010000       0.87470000      -0.09870000
C        1.34800000       1.83040000       0.06320000
C        1.37260000       2.52240000       1.42780000
C        2.70910000       3.23390000       1.58210000
O        3.81170000       2.33850000       1.34730000
C        3.61440000       1.37910000       0.41860000
N        2.56960000       1.08880000      -0.23500000
H        0.31590000       0.13110000      -0.91130000
H        1.20660000       2.58110000      -0.73440000
H        0.54710000       3.23090000       1.53150000
H        1.25470000       1.77240000       2.21660000
H        2.79530000       4.06990000       0.87640000
H        2.85650000       3.62170000       2.59230000
H        4.53360000       0.81580000       0.26840000
