23
Properties=species:S:1:pos:R:3 gdb_120993=T pbc="F F F"
O       -0.07880000       1.45120000       0.09940000
C        0.00000000       0.03330000       0.06700000
C       -1.41670000      -0.51660000      -0.04700000
C       -1.45760000      -2.03940000      -0.06000000
C       -1.14810000      -2.83650000       1.24860000
C       -2.37760000      -3.75460000       0.98390000
C       -3.64740000      -3.38120000       1.78190000
C       -3.98500000      -2.28910000       0.72130000
C       -2.81200000      -2.78820000      -0.17760000
H        0.81320000       1.79970000       0.18500000
H        0.60210000      -0.31220000      -0.78990000
H        0.48010000      -0.35860000       0.97870000
H       -2.00260000      -0.11950000       0.79020000
H       -1.87110000      -0.11950000      -0.96380000
H       -0.80080000      -2.40370000      -0.86030000
H       -0.17760000      -3.33800000       1.27370000
H       -1.24330000      -2.24260000       2.16470000
H       -2.15950000      -4.81260000       0.83070000
H       -4.38780000      -4.18600000       1.79850000
H       -3.48930000      -3.04330000       2.81100000
H       -4.97200000      -2.39490000       0.26530000
H       -3.89220000      -1.25780000       1.07070000
H       -3.09940000      -3.13330000      -1.17260000
