19
Properties=species:S:1:pos:R:3 gdb_124464=T pbc="F F F"
C       -0.21940000       1.50570000      -0.20490000
C        0.00670000       0.01460000       0.11220000
C        0.81940000      -0.13580000       1.40930000
N       -1.31990000      -0.64170000       0.16650000
H       -1.94070000      -0.09070000       0.75270000
H       -0.87940000      -1.35020000      -2.13800000
H       -1.23150000      -1.54600000       0.62460000
C        0.75610000      -0.62030000      -1.03520000
N        0.11880000      -1.22610000      -2.07880000
C        1.11610000      -1.62070000      -2.92040000
N        2.28310000      -1.28130000      -2.43540000
N        2.05200000      -0.64340000      -1.22980000
H        0.73760000       2.00960000      -0.35520000
H       -0.82180000       1.62140000      -1.11020000
H       -0.74200000       1.99620000       0.62450000
H        0.30280000       0.36400000       2.23540000
H        0.94710000      -1.19240000       1.66530000
H        1.81600000       0.29760000       1.29710000
H        0.94360000      -2.14340000      -3.84810000
