23
Properties=species:S:1:pos:R:3 gdb_115873=T pbc="F F F"
C        0.04640000       1.58440000       0.01500000
C        0.01540000       0.05270000       0.02460000
C       -1.39660000      -0.54170000      -0.01590000
C       -2.19950000      -0.24890000      -1.30550000
C       -3.24040000      -1.39090000      -1.41210000
C       -2.57760000      -2.57890000      -0.73220000
C       -1.13990000      -2.89340000      -1.11400000
C       -1.44660000      -2.06380000       0.11080000
O       -1.22570000      -2.61370000       1.37690000
H        1.07190000       1.96140000       0.07850000
H       -0.39870000       1.98830000      -0.90020000
H       -0.51240000       1.99490000       0.86360000
H        0.59330000      -0.33450000      -0.82540000
H        0.52260000      -0.30770000       0.93030000
H       -1.95660000      -0.15500000       0.84840000
H       -2.66870000       0.73800000      -1.29300000
H       -1.52720000      -0.26450000      -2.17160000
H       -4.15320000      -1.12690000      -0.86470000
H       -3.53280000      -1.58830000      -2.44930000
H       -3.18750000      -3.40010000      -0.37320000
H       -0.81350000      -3.90920000      -0.91890000
H       -0.69950000      -2.44060000      -1.99690000
H       -0.27450000      -2.64780000       1.52420000
