16
Properties=species:S:1:pos:R:3 gdb_10887=T pbc="F F F"
O        0.20680000       1.40560000      -0.15160000
C        0.06520000       0.02340000      -0.00430000
C       -0.02570000      -0.65540000       1.40340000
C       -1.48590000      -0.12130000       1.51020000
C       -1.35460000      -0.65170000       0.06030000
O       -2.37970000      -0.61860000      -0.86110000
C       -0.64980000      -1.88860000       0.67850000
O        0.11150000      -2.65460000      -0.22190000
H       -0.52540000       1.85390000       0.28330000
H        0.77560000      -0.43620000      -0.68920000
H        0.72740000      -0.66270000       2.18780000
H       -2.16840000      -0.66770000       2.16630000
H       -1.61230000       0.95410000       1.64880000
H       -2.07150000      -1.05060000      -1.66600000
H       -1.29100000      -2.51530000       1.31040000
H        0.64520000      -3.27670000       0.28150000
