17
Properties=species:S:1:pos:R:3 gdb_90023=T pbc="F F F"
O       -0.17080000       1.48610000       0.03240000
C        0.00920000       0.09450000       0.03240000
C        0.28220000      -0.63390000       1.38020000
C       -0.76260000      -1.70150000       0.96280000
C       -0.36240000      -3.14150000       0.59640000
O       -1.27810000      -3.66140000       1.61520000
C       -1.66700000      -2.39250000       1.97530000
O       -2.45130000      -2.07710000       2.81120000
C       -1.30610000      -0.70040000      -0.08970000
H        0.69210000       1.91050000       0.07300000
H        0.73360000      -0.21800000      -0.73380000
H        1.29590000      -0.97750000       1.60060000
H       -0.09710000      -0.03820000       2.21510000
H       -0.65490000      -3.48960000      -0.39730000
H        0.66680000      -3.43300000       0.82010000
H       -2.13180000      -0.11940000       0.33010000
H       -1.59320000      -1.09170000      -1.06770000
