12
Properties=species:S:1:pos:R:3 gdb_131044=T pbc="F F F"
O        1.91180000       4.17740000       0.05670000
C        1.06310000       3.33430000       0.05280000
N        1.25990000       1.95210000      -0.03650000
C        2.43470000       1.23350000      -0.14020000
C        2.38940000      -0.16870000      -0.22670000
N        3.49740000      -0.86440000      -0.32620000
N        4.66770000      -0.20710000      -0.34330000
N        4.70730000       1.09590000      -0.26230000
N        3.61190000       1.84740000      -0.15960000
H       -0.02190000       3.54610000       0.12160000
H        0.41420000       1.39880000      -0.02660000
H        1.45390000      -0.72550000      -0.21540000
