20
Properties=species:S:1:pos:R:3 gdb_126365=T pbc="F F F"
C        0.07730000       1.49840000      -0.02420000
C       -0.00670000      -0.03400000       0.09430000
C       -1.41210000      -0.54650000       0.08240000
N       -2.13850000      -0.80330000       1.15960000
C       -3.33920000      -1.20280000       0.64940000
C       -4.49500000      -1.60790000       1.50130000
N       -3.39460000      -1.20820000      -0.67410000
N       -2.15070000      -0.78540000      -1.02830000
C       -1.82260000      -0.63360000      -2.42860000
H        1.11780000       1.83190000       0.03110000
H       -0.34020000       1.85180000      -0.97250000
H       -0.48040000       1.97510000       0.78650000
H        0.57800000      -0.50300000      -0.70540000
H        0.43600000      -0.35400000       1.04110000
H       -4.79470000      -0.78880000       2.16270000
H       -5.34450000      -1.88790000       0.87610000
H       -4.22780000      -2.45660000       2.13910000
H       -2.35270000       0.22040000      -2.86150000
H       -0.74850000      -0.47810000      -2.53650000
H       -2.11260000      -1.53710000      -2.96930000
