23
Properties=species:S:1:pos:R:3 gdb_105250=T pbc="F F F"
C        0.95750000       1.50570000       0.25230000
C        0.13130000       0.25070000      -0.06130000
C        0.57560000      -0.47880000      -1.32200000
C        1.78280000      -1.38790000      -1.27730000
C        0.40640000      -1.98280000      -1.45800000
C       -0.23120000      -2.86350000      -0.40600000
C        0.34700000       0.31450000      -2.58040000
C        1.40130000       1.07460000      -3.26790000
O        0.93610000      -0.17540000      -3.78540000
H        2.01660000       1.25640000       0.37640000
H        0.88340000       2.24820000      -0.54810000
H        0.61250000       1.97870000       1.17690000
H        0.18300000      -0.43080000       0.79280000
H       -0.92740000       0.52890000      -0.16030000
H        2.45270000      -1.39610000      -2.12980000
H        2.26690000      -1.51850000      -0.31380000
H        0.19690000      -2.29890000      -2.47690000
H        0.06500000      -2.58360000       0.60890000
H       -1.32530000      -2.82550000      -0.45680000
H        0.06950000      -3.90690000      -0.55260000
H       -0.68060000       0.66510000      -2.70900000
H        1.14440000       1.94900000      -3.86430000
H        2.41320000       1.06130000      -2.86670000
