20
Properties=species:S:1:pos:R:3 gdb_13214=T pbc="F F F"
C        0.08860000       1.54830000       0.12520000
C       -0.05610000       0.03580000      -0.05250000
C        0.72500000      -0.50260000      -1.26080000
O        2.10340000      -0.16370000      -1.19310000
C        0.57930000      -2.01640000      -1.39540000
C        1.37180000      -2.72880000      -2.51210000
C        2.01800000      -3.51770000      -1.35890000
O        1.36160000      -2.69040000      -0.36770000
H        1.14240000       1.82320000       0.21630000
H       -0.32210000       2.08820000      -0.73560000
H       -0.43900000       1.89420000       1.01910000
H        0.29640000      -0.48740000       0.84600000
H       -1.11390000      -0.23240000      -0.17170000
H        0.34450000      -0.03540000      -2.17980000
H        2.46950000      -0.74970000      -0.51630000
H       -0.47770000      -2.30910000      -1.33590000
H        0.78880000      -3.30380000      -3.23220000
H        2.06100000      -2.06210000      -3.03170000
H        1.69880000      -4.56410000      -1.27710000
H        3.10890000      -3.46910000      -1.27300000
