17
Properties=species:S:1:pos:R:3 gdb_19694=T pbc="F F F"
C       -0.20660000       1.31080000      -0.05920000
O        0.15140000      -0.04350000       0.12040000
C        0.69810000      -0.63130000      -1.02740000
C        1.18480000      -2.05280000      -0.90380000
C        0.04160000      -2.97110000      -1.18050000
C       -1.20450000      -2.14370000      -1.44190000
C       -0.22260000      -1.18900000      -2.14320000
N        0.79330000      -2.36230000      -2.33250000
H        0.65910000       1.92150000      -0.35890000
H       -0.99370000       1.43390000      -0.81790000
H       -0.58280000       1.67720000       0.89850000
H        1.47990000       0.00680000      -1.46530000
H        2.12430000      -2.40040000      -0.49080000
H        0.11150000      -4.03230000      -0.96940000
H       -1.85980000      -2.63930000      -2.16200000
H       -1.78000000      -1.76080000      -0.59490000
H       -0.51170000      -0.58980000      -3.00410000
