18
Properties=species:S:1:pos:R:3 gdb_35975=T pbc="F F F"
N        0.08230000      -1.17050000      -0.04350000
C        0.06360000      -0.01630000      -0.01470000
C       -0.00520000       1.45410000       0.02790000
C       -0.81440000       1.92060000       1.25640000
C       -1.34190000       3.36870000       1.12530000
O       -0.64290000       4.18210000       0.20100000
C        0.75450000       4.30060000       0.41130000
C        1.51710000       3.25140000      -0.39240000
O        1.33340000       1.92460000       0.07410000
H       -0.49770000       1.79190000      -0.89640000
H       -1.66210000       1.24750000       1.42030000
H       -0.15080000       1.81260000       2.11920000
H       -2.37070000       3.35900000       0.75380000
H       -1.35500000       3.83950000       2.12010000
H        1.04780000       5.29660000       0.05830000
H        1.00820000       4.23100000       1.47880000
H        1.21350000       3.33190000      -1.44750000
H        2.59420000       3.43520000      -0.32680000
