22
Properties=species:S:1:pos:R:3 gdb_107699=T pbc="F F F"
C       -0.07710000       1.51800000       0.06040000
C       -0.09070000      -0.01390000      -0.00890000
C       -1.48230000      -0.57890000      -0.08870000
C       -2.57940000      -0.30510000      -1.12610000
C       -3.24270000      -1.17520000      -0.05420000
C       -4.68480000      -1.56750000       0.07510000
C       -1.96170000      -2.04370000       0.17870000
C       -2.03960000      -1.73290000       1.66690000
N       -2.50340000      -0.40130000       1.08580000
H        0.94450000       1.89740000       0.15620000
H       -0.51490000       1.95960000      -0.84070000
H       -0.65830000       1.86720000       0.91850000
H        0.47500000      -0.35930000      -0.88430000
H        0.41920000      -0.43050000       0.86880000
H       -2.93820000       0.72650000      -1.19620000
H       -2.44620000      -0.75430000      -2.11480000
H       -4.99830000      -2.16680000      -0.78650000
H       -4.86320000      -2.15750000       0.98000000
H       -5.31960000      -0.67670000       0.12010000
H       -1.66250000      -2.95630000      -0.35060000
H       -2.80310000      -2.23980000       2.26580000
H       -1.10670000      -1.66350000       2.23490000
