20
Properties=species:S:1:pos:R:3 gdb_122703=T pbc="F F F"
O       -0.10510000       1.46390000      -0.24340000
C       -0.06140000       0.08560000       0.05620000
C       -1.45240000      -0.52720000       0.08370000
O       -1.99430000      -0.35060000      -1.22840000
C       -3.31790000      -0.58230000      -1.37300000
N       -3.85840000      -0.49390000      -2.50580000
C       -5.25580000      -0.73340000      -2.60310000
C       -6.02630000       0.06770000      -3.62750000
C       -5.75880000      -1.39400000      -3.86620000
H       -0.58180000       1.54530000      -1.07770000
H        0.55990000      -0.46930000      -0.66380000
H        0.39770000      -0.01670000       1.04480000
H       -1.40640000      -1.59490000       0.33830000
H       -2.07770000      -0.00800000       0.82140000
H       -3.84060000      -0.83700000      -0.43930000
H       -5.78190000      -0.98060000      -1.67790000
H       -7.03290000       0.38040000      -3.37340000
H       -5.45500000       0.78430000      -4.20520000
H       -5.00860000      -1.65420000      -4.60320000
H       -6.57980000      -2.09650000      -3.77770000
