16
Properties=species:S:1:pos:R:3 gdb_19700=T pbc="F F F"
O        0.07600000       1.40270000       0.11220000
C        0.06400000      -0.01280000      -0.03720000
C       -1.34850000      -0.57640000      -0.01230000
C       -1.58050000      -2.09050000       0.00290000
C       -1.54090000      -2.47290000       1.49570000
O       -1.22960000      -1.29990000       2.25000000
C       -2.12390000      -0.59160000       1.34200000
C       -2.80090000      -1.94330000       0.90910000
H       -0.11830000       1.59630000       1.03430000
H        0.52750000      -0.21890000      -1.00870000
H        0.67030000      -0.50470000       0.73410000
H       -1.96870000      -0.10130000      -0.77900000
H       -1.41830000      -2.81200000      -0.78770000
H       -1.25960000      -3.44170000       1.88570000
H       -2.58270000       0.29030000       1.78430000
H       -3.81800000      -2.30260000       0.84720000
