21
Properties=species:S:1:pos:R:3 gdb_88101=T pbc="F F F"
C        0.03780000       1.56590000       0.19090000
C       -0.03120000       0.05890000       0.09150000
C        1.17240000      -0.74110000      -0.37420000
C        0.73950000      -0.80350000       1.06990000
O        1.56590000      -0.14710000       2.01130000
C        1.51030000      -0.84220000       3.25750000
C        0.62620000      -2.02770000       3.00020000
C        0.18370000      -2.00860000       1.74280000
C       -0.71720000      -2.98820000       1.06320000
H        1.00290000       1.88330000       0.59260000
H       -0.10000000       2.03260000      -0.79070000
H       -0.74010000       1.95240000       0.85850000
H       -0.99790000      -0.33400000      -0.21540000
H        1.02180000      -1.60380000      -1.01520000
H        2.08890000      -0.19040000      -0.56060000
H        2.52990000      -1.12510000       3.56310000
H        1.11200000      -0.17610000       4.04030000
H        0.39480000      -2.77200000       3.75190000
H       -0.99960000      -3.79830000       1.73970000
H       -1.63740000      -2.50840000       0.70840000
H       -0.23340000      -3.43310000       0.18530000
