13
Properties=species:S:1:pos:R:3 gdb_50799=T pbc="F F F"
N        0.33730000       1.17860000       0.23270000
C        0.01560000       0.02560000      -0.17550000
N       -1.28750000      -0.47730000      -0.15130000
C       -2.44920000       0.14820000       0.28010000
O       -2.54330000       1.27560000       0.69560000
C       -3.61120000      -0.73340000       0.17540000
C       -4.61020000      -1.40950000       0.10080000
C       -5.80940000      -2.21560000       0.04600000
O       -6.26270000      -2.67720000      -0.97370000
H        1.33980000       1.31830000       0.11590000
H        0.69920000      -0.72350000      -0.59360000
H       -1.40470000      -1.41640000      -0.50050000
H       -6.28810000      -2.38080000       1.03090000
