22
Properties=species:S:1:pos:R:3 gdb_78499=T pbc="F F F"
C       -0.05350000       1.60780000       0.07860000
C        0.08690000       0.09860000      -0.02980000
C        0.81010000      -0.58100000      -1.18060000
C        2.30560000      -0.67090000      -0.77480000
C        3.40180000      -0.90300000      -1.77170000
C        2.37850000      -0.02910000       0.59930000
N        1.02700000      -0.62560000       0.93380000
C        1.28930000      -1.63550000      -0.22120000
C        1.15980000      -3.11490000      -0.12000000
H        0.85620000       2.14090000      -0.20800000
H       -0.85760000       1.95330000      -0.57990000
H       -0.31370000       1.89210000       1.10430000
H       -0.89600000      -0.36320000       0.11770000
H        0.50870000      -0.70790000      -2.21480000
H        3.71580000       0.03420000      -2.24620000
H        4.28440000      -1.34600000      -1.29580000
H        3.08100000      -1.58160000      -2.56960000
H        3.13480000      -0.50390000       1.23270000
H        2.45610000       1.05770000       0.70800000
H        0.13430000      -3.41010000       0.12830000
H        1.42380000      -3.58740000      -1.07220000
H        1.82080000      -3.52080000       0.65390000
