18
Properties=species:S:1:pos:R:3 gdb_47516=T pbc="F F F"
N       -0.11760000       1.30270000      -0.18760000
C       -0.03430000       0.06220000       0.05300000
O        1.17210000      -0.56350000       0.20270000
C        1.30840000      -1.69920000       1.07760000
C        0.64770000      -2.98890000       0.58600000
C       -0.84810000      -2.79010000       0.31030000
C       -1.16410000      -1.97940000      -0.96340000
C       -1.28110000      -0.79390000       0.02060000
O       -1.37590000      -1.71510000       1.13850000
H        0.81620000       1.72070000      -0.18740000
H        2.38810000      -1.84260000       1.16370000
H        0.91040000      -1.43860000       2.06190000
H        1.14230000      -3.36650000      -0.31640000
H        0.79550000      -3.73930000       1.37220000
H       -1.41230000      -3.71590000       0.45480000
H       -0.39540000      -1.92260000      -1.73520000
H       -2.12490000      -2.24170000      -1.40760000
H       -2.14960000      -0.13930000      -0.05260000
