15
Properties=species:S:1:pos:R:3 gdb_19627=T pbc="F F F"
C        0.09990000       1.42830000      -0.00720000
O        1.22310000       0.52470000      -0.06390000
C       -0.08020000      -0.01760000      -0.01540000
C       -0.66760000      -0.91220000       1.04330000
C       -1.69110000      -1.39450000       0.07350000
C       -0.71620000      -0.92160000      -1.07690000
C        0.02080000      -2.24610000      -0.81450000
N       -0.63990000      -2.33170000       0.53810000
H        0.00170000       1.98680000       0.92300000
H       -0.07900000       2.00560000      -0.91350000
H       -0.73100000      -0.77470000       2.11390000
H       -2.75740000      -1.54990000       0.15800000
H       -0.95980000      -0.54850000      -2.06900000
H       -0.34280000      -3.07900000      -1.42040000
H        1.11570000      -2.22820000      -0.80380000
