17
Properties=species:S:1:pos:R:3 gdb_71196=T pbc="F F F"
O        0.00990000       1.38490000       0.26470000
C       -0.02930000       0.01250000       0.12790000
C        0.58600000      -0.71490000      -1.10770000
C       -0.48130000      -1.78010000      -0.86380000
C       -0.65260000      -1.92830000       0.65710000
C       -1.35590000      -0.82070000      -0.09930000
C        0.28790000      -0.92510000       1.33210000
C        1.72820000      -1.21420000       1.65860000
O        2.61720000      -0.42300000       1.44320000
H        0.92020000       1.61970000       0.48550000
H        0.37050000      -0.14520000      -2.01520000
H        1.64500000      -0.98870000      -1.07540000
H       -0.79850000      -2.57000000      -1.53190000
H       -1.10480000      -2.80900000       1.09310000
H       -2.39820000      -0.54870000      -0.16920000
H       -0.19160000      -0.52800000       2.23740000
H        1.94510000      -2.19820000       2.13470000
