19
Properties=species:S:1:pos:R:3 gdb_41842=T pbc="F F F"
C       -0.07070000       1.54590000      -0.18470000
O        1.20490000       2.05130000       0.22550000
C        2.10270000       0.97040000       0.44520000
C        2.16780000       0.53220000       1.93590000
C        1.30490000      -0.74290000       1.89790000
C       -0.15930000      -0.39990000       1.53960000
C       -0.02610000       0.04060000       0.04830000
C        1.47120000      -0.30250000      -0.19380000
O        1.77410000      -1.36990000       0.69040000
H       -0.85430000       2.05230000       0.39060000
H       -0.23240000       1.77630000      -1.24820000
H        3.07670000       1.25210000       0.04020000
H        3.18900000       0.27660000       2.23040000
H        1.79270000       1.32060000       2.59180000
H        1.43160000      -1.42600000       2.73740000
H       -0.78420000      -1.29160000       1.62790000
H       -0.58260000       0.38090000       2.17720000
H       -0.70990000      -0.50170000      -0.60570000
H        1.77040000      -0.55080000      -1.21060000
