18
Properties=species:S:1:pos:R:3 gdb_31395=T pbc="F F F"
C        0.09650000       1.55190000      -0.13690000
C       -0.07110000       0.03330000       0.04850000
C        0.65700000      -0.49140000       1.25900000
C        0.00990000      -0.93010000       2.36340000
C        0.70870000      -1.41570000       3.53590000
N        0.13120000      -1.82990000       4.58890000
O        2.10910000      -1.41020000       3.45960000
C        2.74260000      -0.97630000       2.35020000
C        2.10450000      -0.52060000       1.26170000
H        1.15020000       1.82970000      -0.23940000
H       -0.42850000       1.88970000      -1.03520000
H       -0.30930000       2.09510000       0.72170000
H       -1.13440000      -0.21240000       0.13100000
H        0.30580000      -0.48130000      -0.84500000
H       -1.07120000      -0.94240000       2.43130000
H        0.81700000      -2.12300000       5.28490000
H        3.81850000      -1.04800000       2.45620000
H        2.67570000      -0.19190000       0.40310000
