14
Properties=species:S:1:pos:R:3 gdb_3302=T pbc="F F F"
N        0.00450000      -1.19000000      -0.11710000
C        0.00600000      -0.03510000      -0.05540000
C        0.02030000       1.41940000       0.04710000
C       -0.21790000       2.06190000       1.46720000
C        1.13840000       2.76490000       1.35040000
C        2.23070000       1.75030000       1.17270000
C        1.39020000       2.12200000      -0.01480000
H       -0.68060000       1.83030000      -0.68320000
H       -1.07310000       2.73910000       1.45310000
H       -0.32940000       1.36160000       2.29900000
H        1.33980000       3.78070000       1.66500000
H        3.23950000       2.14900000       1.15570000
H        2.14940000       0.76200000       1.61920000
H        1.81120000       2.54460000      -0.91770000
