15
Properties=species:S:1:pos:R:3 gdb_43995=T pbc="F F F"
O        0.14040000       0.17930000      -0.45660000
C        0.15070000       1.32050000      -0.13950000
O       -0.95310000       2.16070000       0.05280000
C       -0.06580000       3.31850000       0.09800000
C        0.78810000       3.27340000       1.31440000
C        1.16040000       2.43320000       0.09420000
O        2.10300000       2.89770000      -0.79740000
C        1.36890000       3.63610000      -1.80550000
C        0.12280000       4.24880000      -1.08020000
H        1.45690000       4.11180000       1.47770000
H        0.40670000       2.79020000       2.20730000
H        2.04830000       4.37800000      -2.23090000
H        1.05020000       2.95130000      -2.60190000
H       -0.75850000       4.25970000      -1.72440000
H        0.31450000       5.27250000      -0.74930000
