18
Properties=species:S:1:pos:R:3 gdb_22707=T pbc="F F F"
C       -0.07020000       1.37490000      -0.03640000
O        0.05240000      -0.04300000      -0.04910000
C        0.66160000      -0.53660000      -1.16300000
C        2.15900000      -0.37160000      -1.65230000
C        1.48810000      -1.32780000      -2.69480000
C        0.82110000      -2.05420000      -1.47230000
C        0.29770000      -0.38520000      -2.64040000
N       -0.55440000       0.23330000      -3.33050000
O       -0.37940000      -0.02810000      -4.71720000
H        0.91520000       1.85980000      -0.01750000
H       -0.62820000       1.73000000      -0.91070000
H       -0.61210000       1.63350000       0.87500000
H        2.47180000       0.60990000      -2.01180000
H        2.90680000      -0.83960000      -1.00700000
H        1.94540000      -1.77970000      -3.56690000
H        1.51260000      -2.59090000      -0.81790000
H       -0.09360000      -2.61670000      -1.66460000
H       -1.09400000       0.48900000      -5.10370000
