14
Properties=species:S:1:pos:R:3 gdb_24872=T pbc="F F F"
N       -0.16690000       1.32860000       0.00920000
C       -0.00670000       0.05670000       0.00120000
N       -1.13330000      -0.76510000       0.00290000
C       -1.07410000      -2.13610000      -0.00520000
C        0.15310000      -2.74060000      -0.01550000
N        1.31450000      -2.01060000      -0.01790000
C        1.23830000      -0.71890000      -0.01020000
C       -2.29860000      -2.85120000      -0.00240000
C       -3.34680000      -3.44280000       0.00020000
H        0.73690000       1.79790000       0.00680000
H       -2.02910000      -0.29770000       0.01060000
H        0.23800000      -3.81820000      -0.02210000
H        2.16710000      -0.14980000      -0.01210000
H       -4.26610000      -3.97570000       0.00240000
