16
Properties=species:S:1:pos:R:3 gdb_18396=T pbc="F F F"
C        0.21420000       1.30480000      -0.42290000
O        0.54490000       2.25240000       0.56780000
C        1.73290000       2.01450000       1.27600000
C        1.61790000       0.99040000       2.38760000
O        0.41600000       0.98440000       3.14210000
C        0.73830000      -0.19010000       2.35910000
C       -0.13900000      -0.60850000       1.23670000
C       -0.34900000      -0.00200000       0.06810000
H       -0.53630000       1.79290000      -1.05540000
H        1.08790000       1.10720000      -1.07200000
H        2.55490000       1.71770000       0.60120000
H        2.00920000       2.97550000       1.72640000
H        2.53330000       0.91540000       2.98390000
H        1.04340000      -1.02680000       2.98970000
H       -0.64400000      -1.55690000       1.40580000
H       -1.00770000      -0.49340000      -0.64650000
