22
Properties=species:S:1:pos:R:3 gdb_18592=T pbc="F F F"
C       -0.79860000       1.36130000       0.11020000
C       -0.04540000       0.04420000      -0.01740000
C        1.20260000      -0.00250000      -0.94640000
C        2.02140000      -0.70750000       0.17480000
C        3.22150000       0.06900000       0.73090000
C        2.58870000       1.20460000       1.55940000
C        1.35040000       0.54790000       2.20460000
C        0.83110000      -0.47430000       1.17330000
H       -0.13110000       2.18790000       0.37680000
H       -1.28130000       1.62430000      -0.83800000
H       -1.58130000       1.30590000       0.87550000
H       -0.75510000      -0.73910000      -0.30460000
H        1.08420000      -0.56320000      -1.87730000
H        1.58940000       0.99030000      -1.20140000
H        2.25700000      -1.74980000      -0.05000000
H        3.81280000      -0.58220000       1.38700000
H        3.89260000       0.43430000      -0.05410000
H        3.27650000       1.62800000       2.29730000
H        2.28530000       2.02700000       0.90060000
H        1.65450000       0.01150000       3.11130000
H        0.59260000       1.27620000       2.50960000
H        0.41780000      -1.35740000       1.66640000
