18
Properties=species:S:1:pos:R:3 gdb_66863=T pbc="F F F"
C       -0.11250000       1.52190000      -0.10910000
C        0.10740000       0.04470000      -0.01270000
C        0.26950000      -0.89890000      -1.14110000
C        1.18160000      -1.98810000      -0.82170000
C        1.33360000      -2.01370000       0.53220000
C        0.32740000      -2.95160000       1.21730000
C       -0.54360000      -1.63020000       1.14150000
C        0.71520000      -0.74050000       1.14690000
N       -0.99220000      -0.97870000      -0.16920000
H        0.84260000       2.04750000      -0.22130000
H       -0.74230000       1.76570000      -0.96930000
H       -0.60510000       1.90500000       0.79100000
H       -0.04760000      -0.62690000      -2.14090000
H        1.19840000      -2.89070000      -1.42540000
H        0.02110000      -3.84170000       0.66600000
H        0.49750000      -3.19270000       2.27320000
H       -1.34630000      -1.50770000       1.87140000
H        1.14020000      -0.29500000       2.04350000
