17
Properties=species:S:1:pos:R:3 gdb_64592=T pbc="F F F"
O       -0.07790000       1.41350000      -0.01280000
C       -0.06260000       0.03150000      -0.00400000
C        1.03190000      -0.55000000      -0.80980000
O        1.82090000       0.14880000      -1.40640000
C       -0.46550000      -0.74720000       1.24480000
C       -1.20510000       0.05630000       2.30020000
O       -2.28420000       0.70270000       1.64040000
C       -2.59770000       0.02900000       0.42990000
C       -1.36330000      -0.76470000       0.03880000
H        0.67400000       1.66260000      -0.57490000
H        1.08980000      -1.65730000      -0.83680000
H        0.12100000      -1.60530000       1.55430000
H       -1.56400000      -0.62580000       3.08750000
H       -0.59080000       0.83370000       2.76540000
H       -3.44510000      -0.66280000       0.56090000
H       -2.87810000       0.78880000      -0.30650000
H       -1.47960000      -1.63660000      -0.59550000
