20
Properties=species:S:1:pos:R:3 gdb_13627=T pbc="F F F"
C       -0.01270000       1.54630000      -0.01610000
C       -0.03440000       0.01690000       0.02240000
C       -1.44750000      -0.57100000       0.03020000
O       -2.19850000      -0.14890000      -1.12960000
C       -1.45450000      -2.08330000       0.14490000
C       -1.90810000      -2.76110000       1.42600000
C       -2.79790000      -2.76750000       0.21640000
O       -3.94290000      -1.97020000       0.23980000
H        1.01180000       1.92660000      -0.06640000
H       -0.56240000       1.91850000      -0.88450000
H       -0.48240000       1.96820000       0.87930000
H        0.50900000      -0.38960000      -0.84330000
H        0.49290000      -0.35210000       0.91080000
H       -2.01210000      -0.14210000       0.86410000
H       -1.78580000      -0.55060000      -1.90300000
H       -0.67570000      -2.58560000      -0.42600000
H       -1.42170000      -3.68330000       1.72380000
H       -2.21420000      -2.11910000       2.24520000
H       -2.91300000      -3.71110000      -0.31700000
H       -3.81740000      -1.29550000      -0.44300000
