16
Properties=species:S:1:pos:R:3 gdb_123350=T pbc="F F F"
C        0.02140000      -1.22650000       0.03890000
C        0.03140000      -0.03200000       0.17120000
C        0.07660000       1.41690000       0.31600000
C        1.34580000       2.03580000      -0.32300000
C        1.40370000       3.52110000      -0.13740000
N        1.19670000       4.32080000      -1.15840000
O        1.29730000       5.61620000      -0.65810000
C        1.56270000       5.55290000       0.65340000
C        1.64470000       4.26240000       1.05960000
H       -0.00190000      -2.28200000      -0.07350000
H       -0.80990000       1.86670000      -0.14690000
H        0.03430000       1.68230000       1.37980000
H        2.23110000       1.57100000       0.12310000
H        1.36030000       1.81170000      -1.39200000
H        1.66950000       6.50080000       1.15810000
H        1.85100000       3.88810000       2.04860000
