16
Properties=species:S:1:pos:R:3 gdb_52911=T pbc="F F F"
C        0.16060000       1.58890000      -0.13700000
C        0.06680000       0.14020000      -0.05800000
C       -0.01650000      -1.05940000      -0.00470000
C       -0.10990000      -2.50690000       0.08490000
C        0.34040000      -3.16900000       1.43120000
C       -1.09610000      -3.71670000       1.48180000
O       -1.46290000      -2.99260000       0.28150000
C        0.49890000      -3.13760000      -1.10440000
N        0.98590000      -3.65650000      -2.01470000
H        0.47150000       2.02080000       0.82000000
H        0.88750000       1.89300000      -0.89750000
H       -0.80690000       2.02660000      -0.40490000
H        1.14330000      -3.89910000       1.34080000
H        0.58480000      -2.43210000       2.19470000
H       -1.18940000      -4.79890000       1.34220000
H       -1.70360000      -3.40610000       2.33720000
