18
Properties=species:S:1:pos:R:3 gdb_111133=T pbc="F F F"
O       -0.05400000       1.39970000      -0.27270000
C        0.00730000       0.02990000       0.11130000
C       -1.41400000      -0.49500000       0.11310000
C       -2.01190000      -0.73190000      -1.29640000
O       -1.22290000      -1.97850000      -1.36910000
C       -1.53700000      -2.03880000       0.06950000
C       -3.06070000      -2.30350000       0.01160000
N       -3.90670000      -1.13870000       0.36360000
C       -3.42010000      -1.31180000      -1.02680000
H        0.84590000       1.73350000      -0.33050000
H        0.62400000      -0.55510000      -0.58310000
H        0.43390000      -0.07820000       1.12230000
H       -2.03210000       0.04180000       0.83010000
H       -1.85730000      -0.05810000      -2.13680000
H       -0.90080000      -2.72220000       0.63230000
H       -3.45710000      -3.31040000       0.05390000
H       -4.87710000      -1.44780000       0.40430000
H       -4.11450000      -1.50480000      -1.83510000
