18
Properties=species:S:1:pos:R:3 gdb_17848=T pbc="F F F"
O        0.04680000       1.36910000      -0.43940000
C        1.38220000       1.51710000       0.08640000
C        1.33200000       0.10330000       0.68950000
C       -0.08390000       0.03460000       0.09300000
C        2.42900000      -0.98220000       0.54370000
C        3.20480000      -0.23240000       1.66730000
C        1.72160000      -0.27550000       2.14130000
C        1.69300000      -1.76120000       1.67420000
H        2.12140000       1.67650000      -0.71030000
H        1.45110000       2.34610000       0.80360000
H       -0.90880000      -0.04030000       0.81440000
H       -0.23850000      -0.71000000      -0.69960000
H        2.83260000      -1.38550000      -0.38670000
H        3.91630000      -0.82770000       2.24560000
H        3.61870000       0.74780000       1.41690000
H        1.30600000       0.13970000       3.06110000
H        0.71630000      -2.18710000       1.43010000
H        2.29880000      -2.46340000       2.25300000
