24
Properties=species:S:1:pos:R:3 gdb_88663=T pbc="F F F"
C        0.04190000       1.52910000      -0.49060000
C        0.00170000       0.05770000      -0.13620000
C        1.23750000      -0.77530000      -0.12760000
N        0.52840000      -0.49140000       1.11940000
C        1.17470000       0.37900000       2.08120000
C        0.26460000       1.00720000       3.16690000
C        1.36630000       0.69420000       4.21960000
C        0.95100000       0.21380000       5.60130000
C        1.96240000      -0.33150000       3.21250000
H        1.00810000       1.98840000      -0.26950000
H       -0.14540000       1.65600000      -1.56220000
H       -0.73170000       2.08750000       0.04810000
H       -0.92420000      -0.43250000      -0.43590000
H        1.22540000      -1.80940000      -0.46260000
H        2.17940000      -0.25510000      -0.30390000
H        1.80610000       1.15080000       1.61450000
H       -0.05250000       2.04540000       3.03800000
H       -0.61860000       0.37880000       3.32000000
H        2.04030000       1.55350000       4.31490000
H        0.27690000      -0.64730000       5.53010000
H        1.82020000      -0.09150000       6.19520000
H        0.42910000       1.00110000       6.15730000
H        1.55110000      -1.33220000       3.37730000
H        3.04940000      -0.39990000       3.12120000
