16
Properties=species:S:1:pos:R:3 gdb_64676=T pbc="F F F"
C       -0.24470000       1.72080000      -0.20330000
C       -0.00830000       0.22520000      -0.11890000
C       -1.26500000      -0.58450000       0.23610000
C       -1.90970000      -0.13970000       1.47030000
N       -2.42390000       0.22330000       2.43870000
C        0.84770000      -0.40920000      -1.23930000
C        1.85720000      -0.64350000      -0.11630000
O        2.93800000      -1.11570000       0.01340000
O        1.06390000      -0.07780000       0.85170000
H        0.68790000       2.23900000      -0.43990000
H       -0.97710000       1.94870000      -0.98460000
H       -0.62310000       2.10580000       0.74720000
H       -1.98680000      -0.50500000      -0.58520000
H       -1.00030000      -1.64210000       0.33740000
H        0.45980000      -1.32320000      -1.69320000
H        1.18950000       0.27130000      -2.02050000
