15
Properties=species:S:1:pos:R:3 gdb_22872=T pbc="F F F"
O       -0.18570000       1.33090000      -0.13660000
N        0.00600000      -0.05720000      -0.13460000
C       -1.09830000      -0.66670000       0.00180000
C       -2.47410000      -0.04230000       0.14440000
N       -3.35580000      -1.19890000       0.06930000
C       -2.72970000      -2.38980000      -0.13310000
O       -3.23010000      -3.45550000      -0.42500000
C       -1.21720000      -2.17090000       0.04380000
O       -0.49150000      -2.84910000      -0.94680000
H        0.70810000       1.66310000      -0.27520000
H       -2.57050000       0.49820000       1.09460000
H       -2.65750000       0.67810000      -0.66160000
H       -4.35340000      -1.11840000      -0.05320000
H       -0.94490000      -2.53030000       1.05270000
H       -1.01380000      -3.64050000      -1.14530000
