15
Properties=species:S:1:pos:R:3 gdb_3023=T pbc="F F F"
O        0.16100000       1.33410000      -0.15130000
C        0.07960000      -0.06140000       0.02680000
C       -1.38480000      -0.50820000       0.12740000
O       -2.10440000      -0.00850000      -0.99320000
C       -1.51080000      -2.01830000       0.21170000
C       -2.73120000      -2.71210000      -0.20750000
O       -1.57710000      -2.67210000      -1.06500000
H       -0.51210000       1.54550000      -0.81150000
H        0.56310000      -0.60930000      -0.80110000
H        0.61930000      -0.30880000       0.94830000
H       -1.83500000      -0.04540000       1.01410000
H       -1.93920000      -0.64310000      -1.70690000
H       -0.85610000      -2.50810000       0.93300000
H       -2.96190000      -3.69240000       0.20410000
H       -3.57910000      -2.12640000      -0.55330000
