17
Properties=species:S:1:pos:R:3 gdb_15170=T pbc="F F F"
C       -0.32910000       1.12520000       0.49840000
O        0.53090000       0.04390000       0.16030000
C        0.62450000      -0.93240000       1.08670000
N        1.38430000      -1.91530000       0.87940000
C        1.49270000      -2.96300000       1.88290000
C        0.36100000      -3.08980000       2.87740000
C        0.58370000      -3.51890000       4.26310000
O        0.32990000      -2.14670000       3.95960000
H        0.02510000       1.65780000       1.38920000
H       -0.31580000       1.80610000      -0.35350000
H       -1.35800000       0.78440000       0.66820000
H        0.00400000      -0.76950000       1.97660000
H        1.58560000      -3.91950000       1.35110000
H        2.43530000      -2.82630000       2.42970000
H       -0.62100000      -3.28350000       2.44100000
H       -0.20940000      -4.03320000       4.80370000
H        1.59470000      -3.74280000       4.60110000
