18
Properties=species:S:1:pos:R:3 gdb_28092=T pbc="F F F"
C        0.01350000       1.52240000      -0.10940000
C        0.00400000       0.02660000      -0.00840000
C        0.00540000      -0.86560000      -1.05720000
N       -0.02920000      -2.14760000      -0.55130000
C        0.08020000      -3.35050000      -1.33600000
C        1.52070000      -3.67010000      -1.74170000
O        1.80330000      -4.43190000      -2.62590000
C       -0.03460000      -2.07920000       0.82140000
C       -0.02060000      -0.75440000       1.18580000
H        0.88140000       1.95730000       0.39990000
H        0.04670000       1.84780000      -1.15330000
H       -0.87930000       1.96630000       0.34630000
H        0.01530000      -0.69630000      -2.12320000
H       -0.30070000      -4.19740000      -0.75320000
H       -0.53190000      -3.28420000      -2.24100000
H        2.29080000      -3.14040000      -1.13720000
H       -0.05810000      -2.98020000       1.41450000
H       -0.04030000      -0.37790000       2.19780000
