27
Properties=species:S:1:pos:R:3 gdb_123248=T pbc="F F F"
C       -0.05750000       1.58330000       0.07900000
C       -0.00910000       0.05390000       0.02390000
C        0.69980000      -0.48350000      -1.22410000
C        0.75260000      -2.01330000      -1.28710000
C        1.46190000      -2.54930000      -2.53560000
C        1.51080000      -4.07930000      -2.59160000
C        2.21610000      -4.60380000      -3.83460000
O        2.21230000      -6.01490000      -3.79860000
C        2.84650000      -6.59270000      -4.91180000
H        0.95120000       2.01140000       0.07950000
H       -0.58820000       1.99390000      -0.78730000
H       -0.56890000       1.93620000       0.98010000
H        0.49680000      -0.32970000       0.91990000
H       -1.03080000      -0.34700000       0.05970000
H        0.19430000      -0.09940000      -2.12150000
H        1.72250000      -0.08210000      -1.26080000
H        1.25840000      -2.39730000      -0.39030000
H       -0.26970000      -2.41460000      -1.25100000
H        0.95550000      -2.16500000      -3.43220000
H        2.48430000      -2.14760000      -2.57110000
H        2.02580000      -4.47280000      -1.70660000
H        0.49400000      -4.49020000      -2.56820000
H        1.70790000      -4.24280000      -4.74670000
H        3.25290000      -4.22480000      -3.87760000
H        2.35230000      -6.31450000      -5.85710000
H        3.90540000      -6.29470000      -4.98250000
H        2.79400000      -7.67800000      -4.79410000
