19
Properties=species:S:1:pos:R:3 gdb_92516=T pbc="F F F"
C       -0.08580000       1.53230000      -0.05570000
C       -0.02130000      -0.00230000      -0.02870000
N        0.61940000      -0.57640000      -1.22740000
C        1.89030000      -1.23100000      -0.88900000
C        3.16060000      -0.35480000      -1.06730000
N        3.06750000       0.02710000       0.36280000
C        2.10400000      -1.07240000       0.63800000
C        0.79940000      -0.49200000       1.17810000
O        0.46810000      -0.40830000       2.33240000
H        0.91990000       1.94980000      -0.14480000
H       -0.68300000       1.86910000      -0.90760000
H       -0.54040000       1.90460000       0.86740000
H       -1.04000000      -0.39260000       0.08680000
H       -0.00110000      -1.22700000      -1.68660000
H        1.94720000      -2.23160000      -1.31920000
H        4.04850000      -0.95080000      -1.31950000
H        3.07080000       0.48190000      -1.76690000
H        3.92360000       0.00370000       0.90240000
H        2.47320000      -1.92420000       1.21630000
