17
Properties=species:S:1:pos:R:3 gdb_9263=T pbc="F F F"
C        0.39910000       0.98090000      -0.53800000
C       -0.27140000      -0.23100000       0.10440000
C        0.39360000      -0.64470000       1.41850000
O        0.34150000       0.38460000       2.38700000
O       -1.63660000       0.05440000       0.47410000
C       -2.56820000       0.08000000      -0.57270000
C       -2.79300000      -1.25050000      -1.17570000
N       -2.95510000      -2.29320000      -1.64600000
H        1.41500000       0.72030000      -0.85050000
H       -0.13620000       1.32600000      -1.42730000
H        0.45740000       1.79850000       0.18390000
H       -0.25790000      -1.09100000      -0.58090000
H       -0.08670000      -1.56500000       1.78200000
H        1.45180000      -0.86090000       1.24090000
H       -0.59120000       0.59810000       2.50470000
H       -3.51310000       0.43490000      -0.14980000
H       -2.28490000       0.77470000      -1.37600000
