17
Properties=species:S:1:pos:R:3 gdb_19516=T pbc="F F F"
C        0.01070000       1.40880000      -0.28870000
C       -0.00820000      -0.00490000       0.30500000
C       -1.36650000      -0.66300000       0.18930000
C       -1.91760000      -1.23740000      -1.08590000
O       -0.97070000      -1.59590000      -2.08850000
C       -0.22130000      -2.58570000      -1.53330000
N       -0.50180000      -2.98780000      -0.36030000
C       -1.60390000      -2.16460000       0.08440000
H        0.99650000       1.87000000      -0.17310000
H       -0.22860000       1.38630000      -1.35660000
H       -0.72060000       2.05880000       0.20410000
H        0.75440000      -0.61850000      -0.18300000
H        0.27080000       0.03110000       1.36520000
H       -2.14460000      -0.17320000       0.77210000
H       -2.88480000      -0.98190000      -1.49950000
H        0.57500000      -2.95960000      -2.16540000
H       -2.33680000      -2.64500000       0.72130000
