19
Properties=species:S:1:pos:R:3 gdb_63515=T pbc="F F F"
C       -0.03810000       1.54910000      -0.08720000
C       -0.10680000       0.04390000       0.03920000
C       -1.22810000      -0.63720000      -0.71260000
O        1.19130000      -0.62880000      -0.07900000
C        0.54850000      -0.63190000       1.15500000
C        1.13510000      -0.28050000       2.53500000
C       -0.17050000      -0.81790000       3.17320000
C        0.29340000      -1.82680000       2.09270000
O        1.68270000      -1.66060000       2.59290000
H        0.82150000       1.94830000       0.45550000
H        0.05510000       1.83870000      -1.13950000
H       -0.94880000       2.01300000       0.30740000
H       -1.16580000      -0.40470000      -1.78120000
H       -1.17600000      -1.72160000      -0.59430000
H       -2.20280000      -0.29090000      -0.35180000
H        1.78480000       0.53530000       2.84810000
H       -0.04550000      -1.17800000       4.19400000
H       -1.10070000      -0.26610000       3.01410000
H       -0.05130000      -2.83820000       1.88310000
