20
Properties=species:S:1:pos:R:3 gdb_60036=T pbc="F F F"
C       -0.35000000       1.54190000       0.25310000
C        0.11770000       0.09200000       0.09090000
C        0.88350000      -0.38310000       1.32610000
N       -1.02590000      -0.80230000      -0.12330000
C       -1.69470000      -0.70020000      -1.39120000
C       -2.02670000      -2.07830000      -1.96870000
O       -1.63550000      -3.10550000      -1.48070000
C       -3.00560000       0.09910000      -1.32870000
O       -3.63170000       0.42160000      -2.30330000
H        0.50700000       2.20590000       0.40190000
H       -0.88800000       1.89920000      -0.63140000
H       -1.01680000       1.63300000       1.11660000
H        0.80620000       0.05530000      -0.77540000
H        0.23630000      -0.36140000       2.20880000
H        1.24840000      -1.40770000       1.19590000
H        1.74830000       0.25910000       1.51490000
H       -0.75550000      -1.77210000       0.01470000
H       -1.09250000      -0.21740000      -2.18530000
H       -2.65950000      -2.04830000      -2.87650000
H       -3.32970000       0.32420000      -0.29050000
