18
Properties=species:S:1:pos:R:3 gdb_124492=T pbc="F F F"
C       -0.09340000       1.53250000       0.00020000
C        0.07010000       0.00120000      -0.07160000
C        0.88890000      -0.41720000      -1.30710000
C        0.66920000      -0.54280000       1.18420000
C        0.17870000      -1.31570000       2.19810000
N       -1.08430000      -1.89440000       2.36200000
N        1.20990000      -1.51620000       3.08570000
N        2.25850000      -0.93380000       2.68860000
O        1.95210000      -0.27280000       1.47520000
H        0.88110000       2.02060000       0.09670000
H       -0.57370000       1.90540000      -0.90950000
H       -0.70560000       1.83000000       0.85690000
H       -0.92570000      -0.45240000      -0.14640000
H        1.90220000      -0.00850000      -1.25700000
H        0.96530000      -1.50550000      -1.38140000
H        0.41330000      -0.04300000      -2.21860000
H       -1.82230000      -1.20950000       2.47470000
H       -1.08520000      -2.50890000       3.16730000
