18
Properties=species:S:1:pos:R:3 gdb_89813=T pbc="F F F"
O       -0.01990000       1.41690000      -0.02000000
C        0.00680000       0.00680000      -0.09400000
C        0.80840000      -0.67300000       1.05270000
C        0.09770000      -1.99650000       1.31230000
C        0.74780000      -3.31110000       1.24220000
O        0.39050000      -2.72790000       2.49990000
C       -1.32970000      -1.80340000       0.88800000
N       -1.90090000      -0.52120000       1.37340000
C       -1.37950000      -0.62400000      -0.00690000
H       -0.52980000       1.63090000       0.77170000
H        0.45390000      -0.22970000      -1.06550000
H        1.86650000      -0.79350000       0.81350000
H        0.73520000      -0.05260000       1.95040000
H        0.17400000      -4.19280000       0.95620000
H        1.81640000      -3.36980000       1.03810000
H       -1.98420000      -2.66020000       0.76950000
H       -2.91530000      -0.59100000       1.35740000
H       -2.06540000      -0.54880000      -0.84380000
