23
Properties=species:S:1:pos:R:3 gdb_95807=T pbc="F F F"
C       -0.06970000       1.50510000      -0.08940000
C        0.06020000      -0.00820000       0.01140000
O        0.69640000      -0.45340000      -1.18490000
C        0.71160000      -1.86370000      -1.30290000
C        1.44930000      -2.52540000      -0.13340000
C        0.85720000      -2.04390000       1.19550000
O        1.57690000      -2.52370000       2.32340000
C        0.82910000      -0.50550000       1.25720000
C        2.23090000       0.10940000       1.38240000
H        0.91020000       1.97430000      -0.20690000
H       -0.67900000       1.77170000      -0.95700000
H       -0.54540000       1.91050000       0.80880000
H       -0.95450000      -0.44570000       0.04800000
H       -0.32280000      -2.24740000      -1.35530000
H        1.19830000      -2.08970000      -2.25600000
H        1.36480000      -3.61730000      -0.21600000
H        2.51430000      -2.27430000      -0.17110000
H       -0.18920000      -2.39310000       1.24900000
H        1.64150000      -3.48120000       2.24970000
H        0.24470000      -0.23010000       2.14430000
H        2.77110000       0.06080000       0.43270000
H        2.17250000       1.16060000       1.67760000
H        2.80840000      -0.42410000       2.13950000
