21
Properties=species:S:1:pos:R:3 gdb_84357=T pbc="F F F"
C       -0.19680000       1.58330000       0.01440000
C       -0.00230000       0.05980000      -0.04070000
C        0.78570000      -0.46440000      -1.21430000
C        1.83660000      -1.19990000      -0.84990000
C        1.98460000      -1.33960000       0.64780000
C        1.78090000      -2.79010000       1.13310000
C        3.32080000      -0.78920000       1.18100000
C        0.81540000      -0.46300000       1.15530000
O        0.59320000      -0.21350000       2.31280000
H        0.76250000       2.10400000      -0.06650000
H       -0.83800000       1.92570000      -0.80330000
H       -0.66040000       1.86400000       0.96380000
H       -0.99700000      -0.40890000       0.00840000
H        0.50470000      -0.24840000      -2.23960000
H        2.53220000      -1.67220000      -1.53640000
H        2.59400000      -3.43080000       0.77580000
H        1.76970000      -2.82080000       2.22670000
H        0.83770000      -3.20680000       0.76690000
H        3.50410000       0.22890000       0.82460000
H        3.30690000      -0.77170000       2.27460000
H        4.15520000      -1.41810000       0.85290000
