17
Properties=species:S:1:pos:R:3 gdb_20860=T pbc="F F F"
C       -0.15560000       1.54170000       0.05850000
C        0.10480000       0.02790000      -0.02340000
C        0.75040000      -0.52410000       1.21270000
N        2.02850000      -0.82210000       1.20630000
O        2.32130000      -1.28690000       2.48520000
C        1.19800000      -1.25480000       3.21730000
C        0.15220000      -0.78380000       2.49120000
C       -1.27190000      -0.59680000       2.90960000
H        0.78170000       2.08670000       0.20210000
H       -0.62300000       1.90090000      -0.86310000
H       -0.82070000       1.79250000       0.89070000
H       -0.84090000      -0.49860000      -0.20090000
H        0.75760000      -0.18960000      -0.87350000
H        1.28920000      -1.60120000       4.23590000
H       -1.55770000       0.46090000       2.92860000
H       -1.96130000      -1.10380000       2.22530000
H       -1.44270000      -1.00160000       3.91070000
