16
Properties=species:S:1:pos:R:3 gdb_20276=T pbc="F F F"
C       -0.01530000       1.52260000       0.05330000
C        1.31240000       0.80140000       0.01120000
C        0.01350000       0.01180000       0.02040000
C        0.06810000      -0.66000000      -1.33890000
C        0.70640000       0.30730000      -2.37990000
O        1.37540000      -0.80130000      -3.07160000
C        1.55240000      -1.07590000      -1.64590000
C        1.86960000       0.43510000      -1.35160000
H       -0.28680000       1.98020000       0.99910000
H       -0.35820000       2.07660000      -0.81450000
H        1.97000000       0.83770000       0.87150000
H       -0.31260000      -0.54990000       0.88760000
H       -0.73410000      -1.31680000      -1.67260000
H        0.23660000       1.07300000      -2.99780000
H        2.10130000      -1.97550000      -1.36270000
H        2.81840000       0.84280000      -1.69760000
