19
Properties=species:S:1:pos:R:3 gdb_83993=T pbc="F F F"
O        0.06540000       0.94670000       0.56570000
C        0.07940000      -0.33530000       0.04650000
C       -1.16940000      -1.15390000      -0.12060000
C       -2.51800000      -0.61880000       0.31630000
O       -2.66830000       0.78590000       0.14750000
C       -3.07940000       1.19860000      -1.15080000
C       -2.00700000       1.18460000      -2.20480000
C       -0.93230000       0.39500000      -2.28150000
C       -0.44740000      -0.65930000      -1.36910000
H       -0.84450000       1.27570000       0.50590000
H        0.99180000      -0.84780000       0.33690000
H       -1.07840000      -2.22110000       0.07400000
H       -3.33050000      -1.14310000      -0.21000000
H       -2.64600000      -0.80070000       1.38980000
H       -3.94170000       0.58450000      -1.46480000
H       -3.45240000       2.22110000      -1.02530000
H       -2.16040000       1.91280000      -2.99870000
H       -0.27760000       0.55360000      -3.13680000
H        0.13550000      -1.41980000      -1.88210000
