14
Properties=species:S:1:pos:R:3 gdb_132642=T pbc="F F F"
N       -0.07950000       1.35150000       0.13100000
C       -0.02260000      -0.02010000       0.03620000
N       -1.16990000      -0.70220000      -0.02310000
C       -1.12190000      -2.03180000      -0.05790000
O       -2.30600000      -2.68240000      -0.11470000
C        0.05630000      -2.77590000      -0.04530000
C        1.25250000      -2.06350000       0.00400000
C        1.20950000      -0.68710000       0.04610000
F        2.33560000       0.05350000       0.08570000
H        0.75310000       1.84920000      -0.14150000
H       -0.94920000       1.75990000      -0.17450000
H       -2.98710000      -1.99670000      -0.10930000
H        0.02680000      -3.85620000      -0.07900000
H        2.21320000      -2.56610000       0.00970000
