15
Properties=species:S:1:pos:R:3 gdb_19685=T pbc="F F F"
O       -0.17600000       0.04890000       0.31260000
C       -0.02680000       1.19590000      -0.02280000
C        1.26760000       1.95920000       0.06200000
C        1.50230000       2.91140000       1.26880000
C        1.35400000       1.96040000       2.48830000
C        2.57220000       1.23450000       1.92370000
C        2.99820000       2.42420000       1.15290000
N        2.51540000       1.21920000       0.41620000
H       -0.88010000       1.80140000      -0.41370000
H        1.43570000       2.48450000      -0.88610000
H        1.12330000       3.93080000       1.28810000
H        1.61170000       2.47360000       3.41800000
H        0.41620000       1.41120000       2.60940000
H        3.17020000       0.45340000       2.37240000
H        3.94600000       2.91250000       0.97150000
