17
Properties=species:S:1:pos:R:3 gdb_44814=T pbc="F F F"
O        0.50100000       0.16860000       0.69590000
C        0.31110000       1.29860000       0.37730000
O       -0.90790000       1.91450000       0.13130000
C       -0.21170000       3.10940000      -0.33030000
C        0.53550000       3.69320000       0.81030000
C        1.13500000       2.51370000       0.01770000
C        2.47570000       2.51370000      -0.61800000
C        3.52410000       1.52110000      -0.16400000
C        2.90390000       1.38710000      -1.52990000
H       -0.58690000       3.58360000      -1.22570000
H        1.04540000       4.63490000       0.62490000
H        0.16110000       3.55980000       1.82050000
H        2.83740000       3.50460000      -0.87730000
H        4.54890000       1.86580000      -0.08560000
H        3.22690000       0.79550000       0.58430000
H        2.21170000       0.56660000      -1.68230000
H        3.49800000       1.64140000      -2.40040000
