20
Properties=species:S:1:pos:R:3 gdb_80752=T pbc="F F F"
C        0.20180000       1.84760000       0.09670000
N       -0.00360000       0.41260000       0.01370000
C        1.00400000      -0.53910000      -0.42280000
C        2.48190000      -0.17180000      -0.41030000
C        2.82300000       0.28650000       1.03980000
C        1.63240000      -0.18540000       1.92800000
C        0.49250000      -0.54730000       0.98530000
C        4.12680000      -0.32070000       1.50980000
O        5.09630000       0.29560000       1.86530000
H        1.18480000       2.18150000       0.45680000
H        0.04590000       2.27830000      -0.89760000
H       -0.55870000       2.26880000       0.76200000
H        0.67280000      -1.25090000      -1.17590000
H        3.05880000      -1.06630000      -0.68030000
H        2.74410000       0.59950000      -1.14140000
H        2.94620000       1.36940000       1.09080000
H        1.90490000      -1.08480000       2.49610000
H        1.36140000       0.57730000       2.66480000
H       -0.24220000      -1.26560000       1.34280000
H        4.12590000      -1.43880000       1.50320000
