20
Properties=species:S:1:pos:R:3 gdb_116687=T pbc="F F F"
C        0.04540000       1.24970000       0.28050000
O       -0.15640000       0.05940000      -0.47220000
C       -1.23460000      -0.66930000      -0.13030000
N       -1.50210000      -1.74110000      -0.73630000
C       -2.65020000      -2.46380000      -0.33090000
C       -3.84770000      -2.84880000      -1.25360000
C       -4.14880000      -3.50150000       0.12490000
C       -2.65910000      -3.94450000       0.15990000
C       -3.71250000      -2.16830000       0.79150000
H        0.94730000       1.71560000      -0.11790000
H       -0.79640000       1.94380000       0.16830000
H        0.19450000       1.03170000       1.34500000
H       -1.82980000      -0.25100000       0.69460000
H       -4.50120000      -2.02930000      -1.56680000
H       -3.62080000      -3.52450000      -2.08200000
H       -5.01690000      -4.10200000       0.38950000
H       -2.34920000      -4.69670000      -0.56990000
H       -2.22100000      -4.13120000       1.14470000
H       -3.36730000      -2.23060000       1.82800000
H       -4.36940000      -1.30690000       0.63640000
