21
Properties=species:S:1:pos:R:3 gdb_85887=T pbc="F F F"
C       -0.31550000       1.50150000       0.13610000
C       -0.04490000      -0.00410000       0.03620000
C       -1.34260000      -0.75460000      -0.25450000
C        1.14760000      -0.32770000      -0.92780000
C        2.08580000      -0.58390000       0.27960000
O        3.03030000       0.42690000       0.56690000
C        0.81480000      -0.61070000       1.20000000
C        0.94960000       0.02010000       2.55750000
O        0.25520000       0.89860000       3.00630000
H        0.58770000       2.07910000       0.36000000
H       -0.70890000       1.86590000      -0.82020000
H       -1.03500000       1.72720000       0.92490000
H       -1.79940000      -0.39990000      -1.18550000
H       -1.16820000      -1.83130000      -0.35770000
H       -2.07060000      -0.60690000       0.55080000
H        0.98090000      -1.22830000      -1.52550000
H        1.46820000       0.47700000      -1.59710000
H        2.66050000      -1.51200000       0.25450000
H        2.62620000       1.28690000       0.41150000
H        0.53370000      -1.65850000       1.37760000
H        1.78130000      -0.41030000       3.16110000
