19
Properties=species:S:1:pos:R:3 gdb_65426=T pbc="F F F"
C        0.00800000       1.55270000      -0.10800000
C       -0.04220000       0.04940000       0.06190000
C        1.23600000      -0.78840000      -0.00890000
C        0.52650000      -0.66020000       1.29470000
C        1.11150000       0.12670000       2.46100000
C        1.97080000      -0.70140000       3.30230000
C        2.66860000      -1.40170000       3.98530000
C       -1.24950000      -0.60640000      -0.50420000
O       -2.15380000      -0.02700000      -1.05340000
H        0.96190000       1.97050000       0.22130000
H       -0.13020000       1.81210000      -1.16120000
H       -0.79610000       2.03980000       0.45200000
H        1.20560000      -1.73850000      -0.53200000
H        2.15450000      -0.22850000      -0.15080000
H       -0.03090000      -1.53700000       1.61480000
H        1.68490000       0.98390000       2.09190000
H        0.29850000       0.54300000       3.06990000
H        3.29010000      -2.01090000       4.59360000
H       -1.26600000      -1.71610000      -0.38330000
