19
Properties=species:S:1:pos:R:3 gdb_77118=T pbc="F F F"
C       -0.35190000       1.38940000      -0.00790000
C        0.02370000      -0.08560000       0.00340000
N        1.22730000      -0.44770000      -0.77140000
C        1.94250000      -1.06840000       0.35070000
C        0.76390000      -0.64770000       1.23970000
C        0.75120000      -0.12870000       2.62080000
N        0.21640000      -1.47120000       2.30180000
C        1.42390000      -0.62670000      -2.09810000
O        2.39270000      -1.17310000      -2.58370000
H        0.50280000       2.01060000       0.27340000
H       -0.69180000       1.69830000      -1.00140000
H       -1.17020000       1.58010000       0.69490000
H       -0.84520000      -0.70100000      -0.27300000
H        2.06880000      -2.15050000       0.24270000
H        2.91150000      -0.61010000       0.57110000
H        1.66310000      -0.13030000       3.21190000
H        0.05440000       0.66940000       2.86450000
H       -0.80120000      -1.45290000       2.28460000
H        0.59740000      -0.19770000      -2.70250000
