17
Properties=species:S:1:pos:R:3 gdb_76599=T pbc="F F F"
C        0.16870000       1.44540000       0.34770000
C       -0.04840000      -0.00490000      -0.01160000
C        0.63550000      -0.69600000      -1.17580000
C        1.61750000      -0.01680000      -2.10000000
N        0.98740000      -1.00700000       0.19470000
C        2.20860000      -0.93820000       0.79780000
O        3.26270000      -1.29680000       0.32200000
C        2.12500000      -0.45860000       2.19480000
N        2.09190000      -0.06280000       3.28020000
H        1.16600000       1.79830000       0.07610000
H       -0.56900000       2.06530000      -0.17170000
H        0.04000000       1.59910000       1.42280000
H       -1.04190000      -0.37640000       0.23640000
H        0.06020000      -1.49090000      -1.64930000
H        2.14060000       0.81260000      -1.62070000
H        2.37320000      -0.73110000      -2.43670000
H        1.08880000       0.36760000      -2.97780000
