19
Properties=species:S:1:pos:R:3 gdb_41616=T pbc="F F F"
C        0.03450000       1.45780000      -0.03600000
O        1.47610000       1.44860000      -0.23570000
C        1.50600000       0.03840000      -0.01220000
C       -0.00170000      -0.06120000       0.10560000
C        0.72430000      -0.69340000      -1.06040000
C        0.67450000      -0.25320000      -2.52400000
C        0.97630000      -1.56900000      -3.28170000
O        1.51580000      -2.47630000      -2.32540000
C        0.85160000      -2.21210000      -1.10360000
H       -0.21590000       1.98790000       0.88930000
H       -0.50120000       1.90900000      -0.87940000
H        2.32880000      -0.37120000       0.56420000
H       -0.62550000      -0.62090000       0.79150000
H       -0.30160000       0.15220000      -2.80790000
H        1.42240000       0.52050000      -2.71310000
H        0.05350000      -1.98300000      -3.71800000
H        1.71180000      -1.45710000      -4.08200000
H        1.44810000      -2.63400000      -0.28850000
H       -0.14420000      -2.69000000      -1.08460000
