15
Properties=species:S:1:pos:R:3 gdb_25015=T pbc="F F F"
N       -0.15620000       1.25880000       0.09390000
C       -0.04010000      -0.00000000       0.07000000
N       -1.05080000      -0.92950000       0.24390000
C       -0.53960000      -2.21390000       0.03630000
C        0.77580000      -2.07260000      -0.17220000
O        1.11950000      -0.73370000      -0.12830000
C       -1.38910000      -3.40680000       0.12070000
C       -2.46620000      -3.53370000       1.11970000
O       -2.76610000      -3.21300000      -0.24010000
H        0.74030000       1.70740000      -0.07360000
H       -2.01710000      -0.68870000       0.09820000
H        1.57530000      -2.77680000      -0.32020000
H       -0.93750000      -4.31900000      -0.26500000
H       -2.77390000      -4.52590000       1.44550000
H       -2.62500000      -2.73150000       1.83770000
