17
Properties=species:S:1:pos:R:3 gdb_117032=T pbc="F F F"
C       -0.70070000       1.11580000       0.96680000
C       -0.02860000      -0.07190000       0.28740000
N        0.55810000      -0.96420000       1.27220000
C        1.29330000      -2.04260000       0.89360000
N        1.56160000      -2.30380000      -0.33270000
C        1.81650000      -2.93240000       2.01240000
O        2.52250000      -3.88640000       1.77850000
C        1.48500000      -2.70860000       3.50060000
O        0.74110000      -1.87350000       3.94810000
H        0.01800000       1.69070000       1.55950000
H       -1.13480000       1.78330000       0.21810000
H       -1.50850000       0.79010000       1.63160000
H       -0.74690000      -0.62270000      -0.33610000
H        0.76360000       0.26040000      -0.39300000
H        0.27850000      -0.89130000       2.23820000
H        2.15290000      -3.13450000      -0.37080000
H        2.01570000      -3.44530000       4.13700000
