25
Properties=species:S:1:pos:R:3 gdb_107622=T pbc="F F F"
C        0.78390000      -0.32320000      -1.47880000
C        0.08200000      -0.05760000      -0.14030000
C       -1.38050000      -0.45990000      -0.10220000
C       -1.96790000      -0.94300000       1.20660000
C       -1.81060000      -1.90490000       0.05130000
C       -3.03070000      -2.14830000      -0.82430000
C       -3.59270000      -0.73640000      -1.10080000
C       -2.37110000       0.21490000      -1.06190000
C       -2.72740000       1.66020000      -0.70540000
H        1.84700000      -0.07030000      -1.41690000
H        0.70580000      -1.37860000      -1.76130000
H        0.35460000       0.27030000      -2.29210000
H        0.61270000      -0.60050000       0.65170000
H        0.17750000       1.00670000       0.11550000
H       -1.27970000      -1.05480000       2.03830000
H       -2.96290000      -0.63020000       1.50710000
H       -1.07170000      -2.69480000       0.14490000
H       -2.71510000      -2.62600000      -1.76000000
H       -3.77380000      -2.80810000      -0.36230000
H       -4.13120000      -0.67620000      -2.05080000
H       -4.30870000      -0.45210000      -0.32150000
H       -1.90970000       0.21410000      -2.05890000
H       -3.16930000       1.71970000       0.29550000
H       -1.84440000       2.30810000      -0.71790000
H       -3.45020000       2.07570000      -1.41600000
