20
Properties=species:S:1:pos:R:3 gdb_111958=T pbc="F F F"
C       -0.22310000       1.55030000       0.01030000
C        0.08530000       0.05070000       0.04170000
N        0.69000000      -0.43780000      -1.18400000
C        0.03590000      -0.62720000      -2.41380000
C        0.87640000      -1.03840000      -3.36780000
C        2.25930000      -1.15250000      -2.77540000
C        3.35520000      -0.31270000      -3.44890000
C        2.04060000      -0.71600000      -1.31430000
O        2.87020000      -0.61450000      -0.43500000
H        0.69260000       2.12810000      -0.14270000
H       -0.92300000       1.79870000      -0.79420000
H       -0.67360000       1.86340000       0.95730000
H        0.80220000      -0.17220000       0.83610000
H       -0.82730000      -0.52360000       0.24150000
H       -1.02870000      -0.44490000      -2.47010000
H        0.61640000      -1.26310000      -4.39110000
H        2.59050000      -2.20020000      -2.75010000
H        3.04920000       0.73470000      -3.52960000
H        4.27190000      -0.35900000      -2.85490000
H        3.56720000      -0.68390000      -4.45570000
