14
Properties=species:S:1:pos:R:3 gdb_3394=T pbc="F F F"
C       -0.05220000       1.56350000       0.02100000
C        0.09340000       0.05860000      -0.05600000
C        0.58570000      -0.71310000      -1.24120000
N        1.33890000      -0.69340000       0.10520000
C        2.43940000       0.11760000      -0.52980000
C        1.73400000      -0.00100000      -1.89420000
O        2.06470000       0.18310000      -3.02990000
H        0.66280000       2.10700000      -0.59850000
H       -1.05530000       1.84460000      -0.31420000
H        0.05910000       1.90310000       1.05640000
H       -0.71110000      -0.46500000       0.45910000
H        0.06790000      -1.58450000      -1.62720000
H        2.61410000       1.10320000      -0.09290000
H        3.37250000      -0.45250000      -0.52590000
