17
Properties=species:S:1:pos:R:3 gdb_126878=T pbc="F F F"
C       -0.07660000       1.42200000      -0.29900000
C       -0.10200000      -0.03150000       0.19430000
N       -1.43580000      -0.61010000       0.15300000
C       -1.78900000      -1.20550000      -0.91210000
N       -1.13670000      -1.48550000      -2.11690000
N       -2.00460000      -2.08460000      -3.05890000
C       -3.08130000      -2.28860000      -2.38170000
O       -4.18680000      -2.89990000      -2.81500000
N       -3.02990000      -1.82590000      -1.09880000
H        0.92500000       1.85330000      -0.19720000
H       -0.37060000       1.49460000      -1.35250000
H       -0.77700000       2.03080000       0.28010000
H        0.62970000      -0.62910000      -0.37640000
H        0.23710000      -0.05200000       1.23650000
H       -0.46470000      -0.84660000      -2.50720000
H       -4.02410000      -3.16550000      -3.72990000
H       -3.75820000      -1.85040000      -0.40760000
