19
Properties=species:S:1:pos:R:3 gdb_81938=T pbc="F F F"
C       -0.01770000       1.52730000       0.15570000
C       -0.03460000       0.03920000      -0.00200000
C       -0.07610000      -0.69860000      -1.12290000
C       -0.05950000      -0.25500000      -2.54970000
C       -0.03640000      -2.19970000      -0.81690000
O        1.07390000      -2.84930000      -1.41940000
C        0.01960000      -2.24760000       0.71010000
O        1.24840000      -1.69600000       1.20630000
C        0.04840000      -0.86870000       1.19130000
H        0.90580000       1.86030000       0.64630000
H       -0.09800000       2.04550000      -0.80240000
H       -0.84750000       1.86650000       0.78870000
H        0.06660000       0.82480000      -2.65620000
H        0.75550000      -0.75690000      -3.08290000
H       -0.98830000      -0.54080000      -3.06110000
H       -0.92560000      -2.71380000      -1.20220000
H        1.84660000      -2.52990000      -0.93370000
H       -0.37990000      -3.08920000       1.26810000
H       -0.30030000      -0.56440000       2.17400000
