17
Properties=species:S:1:pos:R:3 gdb_18333=T pbc="F F F"
O       -0.15310000       0.16010000       0.62840000
C       -0.08250000       1.31090000       0.25340000
N       -1.14160000       2.17060000       0.10790000
C       -0.83660000       3.48070000      -0.44210000
C        0.69570000       3.54350000      -0.32310000
C        1.28480000       3.89470000       1.07730000
C        2.02690000       2.52740000       1.10170000
C        1.18420000       2.08140000      -0.12390000
H       -2.08090000       1.83490000       0.25160000
H       -1.17010000       3.56750000      -1.48600000
H       -1.32330000       4.27970000       0.13070000
H        1.15350000       4.09880000      -1.14210000
H        1.90990000       4.78880000       1.12480000
H        0.51080000       3.97550000       1.84600000
H        3.08710000       2.62150000       0.85530000
H        1.93080000       1.91460000       2.00050000
H        1.70580000       1.56090000      -0.92940000
