16
Properties=species:S:1:pos:R:3 gdb_56356=T pbc="F F F"
N        0.02720000       1.25840000       0.58880000
C        0.11910000      -0.05110000       0.16020000
N        1.14330000      -0.71340000      -0.21230000
C        2.43520000      -0.05650000      -0.25760000
C        3.16000000      -0.17310000       1.10740000
C        4.47800000       0.44470000       1.08200000
C        5.55840000       0.96870000       1.02710000
C       -1.15340000      -0.75430000       0.19950000
N       -2.18230000      -1.27940000       0.23110000
H        0.79810000       1.87370000       0.38210000
H       -0.88220000       1.69210000       0.56880000
H        3.04210000      -0.55650000      -1.01720000
H        2.38460000       1.00560000      -0.54810000
H        2.54310000       0.29040000       1.88700000
H        3.23860000      -1.23480000       1.36680000
H        6.51800000       1.42210000       0.99470000
