19
Properties=species:S:1:pos:R:3 gdb_71574=T pbc="F F F"
C        0.06570000       1.47540000      -0.07200000
C        0.00450000      -0.01940000       0.04290000
C       -1.32050000      -0.78620000      -0.15380000
C       -0.74530000      -2.11900000       0.37720000
O       -1.38140000      -3.32200000       0.10260000
C       -0.44580000      -1.76980000       1.84990000
C        0.63060000      -0.85130000       1.24680000
C        0.80390000      -1.79860000       0.04890000
O        0.86730000      -0.73790000      -0.90850000
H        1.09060000       1.83200000       0.06420000
H       -0.28300000       1.79910000      -1.05840000
H       -0.57030000       1.94220000       0.68680000
H       -2.16190000      -0.42610000       0.44430000
H       -1.59270000      -0.80420000      -1.21310000
H       -1.55590000      -3.36440000      -0.84390000
H       -1.25790000      -1.34400000       2.44570000
H        0.01230000      -2.60660000       2.38480000
H        1.45580000      -0.40930000       1.80120000
H        1.52490000      -2.60690000      -0.06570000
