17
Properties=species:S:1:pos:R:3 gdb_44014=T pbc="F F F"
O       -0.04040000       0.00460000      -0.00140000
C        0.01450000       1.20310000      -0.00440000
C       -1.20540000       2.19840000      -0.06670000
C       -0.37190000       3.45490000      -0.03330000
C       -0.23320000       4.99080000      -0.03410000
C        1.23700000       4.45670000       0.03780000
C        0.82560000       3.27830000       0.96570000
C        1.26060000       2.10300000       0.05010000
C        0.91420000       3.26930000      -0.91360000
H       -1.78140000       2.03710000      -0.98290000
H       -1.86520000       2.04550000       0.79270000
H       -0.52160000       5.51460000      -0.95090000
H       -0.60640000       5.52310000       0.84650000
H        2.15770000       5.03890000       0.07840000
H        0.73840000       3.28740000       2.05340000
H        2.22570000       1.60120000       0.09790000
H        0.92980000       3.26810000      -2.00460000
