19
Properties=species:S:1:pos:R:3 gdb_89759=T pbc="F F F"
O        0.50760000       0.82520000      -0.70190000
C        0.09720000      -0.27080000       0.07440000
C        0.02560000      -0.10930000       1.62980000
C       -1.35860000      -0.76690000       1.58910000
C       -1.93830000      -1.77940000       2.47170000
O       -2.43980000      -0.43180000       2.44240000
C       -1.39700000      -0.65370000       0.08150000
C       -2.47060000       0.06460000      -0.69180000
C       -2.21260000      -1.40300000      -0.92510000
H       -0.06120000       1.57090000      -0.47960000
H        0.74270000      -1.10100000      -0.22590000
H        0.80350000      -0.59540000       2.22240000
H       -0.03920000       0.94430000       1.92020000
H       -2.61040000      -2.53510000       2.06700000
H       -1.41940000      -2.06280000       3.38700000
H       -3.36250000       0.35020000      -0.14510000
H       -2.15240000       0.76100000      -1.46130000
H       -1.72630000      -1.69420000      -1.85080000
H       -2.94600000      -2.11500000      -0.55920000
