21
Properties=species:S:1:pos:R:3 gdb_60200=T pbc="F F F"
C       -0.14010000       1.40640000       0.30720000
C        0.07220000      -0.08160000      -0.00530000
C       -1.22350000      -0.87180000       0.21800000
C        0.59560000      -0.31580000      -1.43920000
C        1.97550000       0.25260000      -1.67390000
O        3.08520000      -0.44210000      -1.11690000
C        3.01440000      -0.35700000      -2.54530000
C        2.78820000      -1.64340000      -3.27010000
O        3.07460000      -1.80390000      -4.42930000
H        0.78290000       1.98730000       0.21920000
H       -0.88050000       1.84710000      -0.37160000
H       -0.50980000       1.53760000       1.32910000
H        0.83300000      -0.47250000       0.68360000
H       -2.01400000      -0.53060000      -0.46140000
H       -1.07490000      -1.94280000       0.04530000
H       -1.58950000      -0.74460000       1.24180000
H        0.60150000      -1.39080000      -1.64250000
H       -0.09580000       0.14000000      -2.16160000
H        2.05400000       1.33680000      -1.57570000
H        3.73910000       0.30250000      -3.02140000
H        2.34810000      -2.45270000      -2.64930000
