16
Properties=species:S:1:pos:R:3 gdb_43906=T pbc="F F F"
O       -0.02620000       0.01830000       0.14210000
C        0.01590000       1.21140000       0.01690000
N       -0.97060000       2.17650000      -0.05720000
C       -0.06120000       3.32960000      -0.06060000
C        0.37290000       3.81250000       1.36620000
C        1.53200000       2.77450000       1.37670000
C        1.12380000       2.28080000      -0.04210000
C       -0.28430000       4.31580000      -1.08810000
C       -0.45990000       5.16300000      -1.92320000
H       -1.95100000       2.12730000       0.18720000
H        0.71800000       4.84760000       1.36840000
H       -0.40140000       3.69450000       2.12680000
H        2.51840000       3.24050000       1.39280000
H        1.49900000       2.00860000       2.15370000
H        1.87480000       2.20900000      -0.82510000
H       -0.61770000       5.90160000      -2.67000000
