17
Properties=species:S:1:pos:R:3 gdb_72137=T pbc="F F F"
O        0.07020000       1.39530000       0.09590000
C        0.02400000       0.01650000      -0.03780000
C        0.51320000      -0.81370000      -1.23080000
C       -0.19720000      -1.94840000      -0.45030000
O        0.63490000      -2.09790000       0.70980000
C        0.36990000      -0.80450000       1.27300000
C       -1.13810000      -0.89000000       1.61950000
C       -1.26490000      -0.90990000       0.09130000
O       -2.43110000      -0.81540000      -0.65180000
H       -0.29150000       1.78900000      -0.70540000
H       -0.03250000      -0.54560000      -2.14070000
H        1.58130000      -0.93330000      -1.42480000
H       -0.47040000      -2.90450000      -0.89030000
H        1.13550000      -0.49600000       1.98090000
H       -1.46600000      -1.74400000       2.21620000
H       -1.51320000       0.05310000       2.02830000
H       -2.93910000      -0.06590000      -0.32310000
