16
Properties=species:S:1:pos:R:3 gdb_124813=T pbc="F F F"
C       -0.84770000       1.40620000      -0.32270000
C        0.29000000       0.44010000      -0.01440000
O       -0.11120000      -0.60450000       0.88530000
C        0.90940000      -0.17420000      -1.23930000
N        0.67240000       0.19250000      -2.46590000
O        1.42760000      -0.61050000      -3.26220000
N        2.15280000      -1.52460000      -2.51350000
C        1.84800000      -1.26210000      -1.26860000
N        2.38730000      -1.89000000      -0.17280000
H       -0.49610000       2.23270000      -0.94500000
H       -1.64910000       0.90040000      -0.87130000
H       -1.25150000       1.80540000       0.61070000
H        1.07730000       0.96700000       0.53870000
H       -0.87860000      -1.04190000       0.49730000
H        2.84430000      -2.76850000      -0.36950000
H        1.75660000      -1.91500000       0.61740000
