17
Properties=species:S:1:pos:R:3 gdb_31589=T pbc="F F F"
N       -0.05120000       1.38300000       0.26050000
C       -0.06620000      -0.00150000       0.09760000
C       -1.11790000      -0.85530000      -0.06100000
N       -2.47570000      -0.51570000      -0.03290000
C       -0.55980000      -2.17410000      -0.17300000
C        0.79050000      -2.02680000      -0.07410000
C        1.90920000      -3.01800000      -0.13180000
O        1.54500000      -4.18950000      -0.84050000
O        1.12090000      -0.72340000       0.09600000
H        0.23060000       1.67590000       1.19170000
H        0.54900000       1.85250000      -0.41040000
H       -2.59930000       0.48500000      -0.13600000
H       -3.01970000      -1.00340000      -0.73350000
H       -1.09170000      -3.10530000      -0.29010000
H        2.79910000      -2.52670000      -0.55670000
H        2.18770000      -3.36070000       0.87270000
H        1.21100000      -3.90900000      -1.69970000
