15
Properties=species:S:1:pos:R:3 gdb_67413=T pbc="F F F"
N       -0.15140000       1.45250000       0.16340000
C       -0.00640000       0.07610000      -0.01400000
C       -1.05620000      -1.01310000      -0.08740000
C       -0.40070000      -1.66990000      -1.29830000
C        0.90470000      -0.99360000      -0.81460000
O        1.20540000      -1.68550000       0.42710000
C        0.07210000      -1.04430000       0.99330000
C       -0.16640000      -1.06970000       2.39500000
N       -0.36730000      -1.07140000       3.53450000
H        0.71110000       1.91720000       0.42270000
H       -0.56070000       1.91840000      -0.63820000
H       -2.09800000      -0.95250000       0.19890000
H       -0.37890000      -2.76070000      -1.36290000
H       -0.76850000      -1.23170000      -2.22960000
H        1.77840000      -0.83990000      -1.44340000
