17
Properties=species:S:1:pos:R:3 gdb_23514=T pbc="F F F"
O       -0.12420000       1.34650000       0.09350000
N        0.03840000      -0.05340000       0.00030000
C       -1.09430000      -0.63090000      -0.04440000
C       -2.49770000      -0.03690000      -0.02990000
N       -3.38170000      -1.15830000      -0.40970000
C       -3.00220000      -1.63190000      -1.79740000
C       -2.13640000      -2.71920000      -1.18590000
C       -2.72850000      -2.38470000       0.15200000
C       -1.26330000      -2.10470000      -0.07350000
H        0.78790000       1.65430000       0.11310000
H       -2.75180000       0.30980000       0.97910000
H       -2.61020000       0.81060000      -0.70980000
H       -3.88380000      -2.02470000      -2.31130000
H       -2.51930000      -0.87600000      -2.42710000
H       -1.88930000      -3.68740000      -1.60440000
H       -3.16900000      -2.97600000       0.94420000
H       -0.50070000      -2.75050000       0.34230000
