18
Properties=species:S:1:pos:R:3 gdb_48879=T pbc="F F F"
O       -0.77120000       1.01760000       0.64940000
C        0.08140000       1.10250000      -0.19620000
C        1.34700000       1.90540000      -0.06540000
C        1.39180000       3.03840000       0.98540000
C        1.84770000       3.93170000      -0.15920000
C        2.90130000       3.28920000      -0.98960000
C        3.71430000       2.13220000      -0.42340000
C        2.63030000       1.07030000      -0.09930000
N        1.48470000       2.91080000      -1.21930000
H       -0.00650000       0.57450000      -1.17260000
H        0.38940000       3.28690000       1.33690000
H        2.05520000       2.91400000       1.84670000
H        1.58510000       4.97830000      -0.28220000
H        3.32610000       3.89000000      -1.78790000
H        4.43820000       1.76310000      -1.15440000
H        4.27520000       2.42690000       0.46900000
H        2.80330000       0.54640000       0.84480000
H        2.57020000       0.32220000      -0.89770000
