18
Properties=species:S:1:pos:R:3 gdb_16945=T pbc="F F F"
C        0.00530000       1.48570000       0.04600000
C       -0.06910000      -0.00310000      -0.02430000
C       -0.09960000      -0.80800000      -1.09650000
C       -0.01500000      -2.23080000      -0.57190000
C       -0.83310000      -2.11940000       0.72310000
C        0.02210000      -0.91520000       1.19620000
C        1.42740000      -1.58570000       1.10410000
O        1.33600000      -2.42840000      -0.04890000
H        0.93390000       1.81640000       0.52910000
H       -0.03600000       1.93720000      -0.94910000
H       -0.81800000       1.89730000       0.64370000
H       -0.05370000      -0.51650000      -2.13850000
H       -0.22300000      -3.04620000      -1.26240000
H       -1.87990000      -1.85840000       0.56140000
H       -0.74930000      -3.00640000       1.35790000
H       -0.20540000      -0.46760000       2.16430000
H        2.23480000      -0.85410000       0.97830000
H        1.64080000      -2.19780000       1.98990000
