22
Properties=species:S:1:pos:R:3 gdb_113269=T pbc="F F F"
C       -0.30280000       1.58650000      -0.43480000
C        0.02380000       0.19600000       0.10600000
N       -1.20020000      -0.59120000       0.22550000
C       -1.58930000      -1.43610000      -0.89830000
C       -1.15210000      -2.04530000       0.39820000
C        0.16800000      -2.79380000       0.46420000
C       -2.21060000      -2.57770000       1.36130000
C       -2.71450000      -3.94790000       0.96330000
O       -2.71610000      -4.92000000       1.67430000
H        0.60180000       2.19940000      -0.49540000
H       -0.73600000       1.52210000      -1.43840000
H       -1.02550000       2.09040000       0.21270000
H        0.77920000      -0.27800000      -0.54180000
H        0.46630000       0.27940000       1.10590000
H       -2.63820000      -1.40490000      -1.18510000
H       -0.89740000      -1.51940000      -1.73660000
H        0.87740000      -2.46070000      -0.29530000
H        0.63540000      -2.67220000       1.44820000
H        0.00400000      -3.86640000       0.31600000
H       -1.82760000      -2.62890000       2.38580000
H       -3.06070000      -1.88440000       1.34530000
H       -3.10190000      -4.00480000      -0.08120000
