17
Properties=species:S:1:pos:R:3 gdb_65827=T pbc="F F F"
C       -0.02330000       1.55690000       0.02770000
C        0.04570000       0.03270000      -0.04020000
C        0.83750000      -0.51080000      -1.26010000
C        1.46040000      -1.78990000      -0.70350000
C        1.60850000      -1.49050000       0.78410000
O        2.28740000      -2.04480000       1.59590000
O        0.81540000      -0.42590000       1.10620000
C       -1.29410000      -0.56240000       0.02620000
C       -2.39310000      -1.04650000       0.06240000
H        0.98840000       1.97070000       0.03640000
H       -0.56220000       1.94460000      -0.84110000
H       -0.54520000       1.87570000       0.93230000
H        0.19210000      -0.66280000      -2.12560000
H        1.61360000       0.21280000      -1.52740000
H        0.79100000      -2.65050000      -0.80970000
H        2.42510000      -2.06080000      -1.13330000
H       -3.36420000      -1.47530000       0.10630000
