19
Properties=species:S:1:pos:R:3 gdb_97653=T pbc="F F F"
C        0.02920000       1.47370000      -0.32310000
C       -0.00670000      -0.01400000      -0.00630000
C        1.31800000      -0.78660000      -0.01400000
C        0.62750000      -0.50160000       1.28780000
O        1.13380000       0.47570000       2.14630000
C       -1.17510000      -0.72090000      -0.45880000
C       -2.15830000      -1.29880000      -0.84890000
C       -3.35930000      -1.98970000      -1.29560000
O       -3.10640000      -2.65720000      -2.52840000
H        0.90380000       1.94070000       0.13260000
H        0.06010000       1.63310000      -1.40500000
H       -0.86340000       1.97070000       0.06830000
H        1.31940000      -1.79930000      -0.39900000
H        2.20170000      -0.19880000      -0.24020000
H        0.12380000      -1.33040000       1.78270000
H        1.97220000       0.15720000       2.49680000
H       -3.67600000      -2.70380000      -0.51740000
H       -4.17570000      -1.25650000      -1.40230000
H       -3.92500000      -3.09100000      -2.79050000
