18
Properties=species:S:1:pos:R:3 gdb_40866=T pbc="F F F"
C       -0.05780000       1.30090000      -0.24860000
C        1.43110000       1.48570000       0.10850000
C        1.28910000       0.10060000       0.77060000
O       -0.07340000      -0.02150000       0.32990000
C        2.31710000      -0.97930000       0.48930000
C        2.99020000      -0.69880000       1.78810000
C        1.62190000      -0.08650000       2.27080000
C        1.19440000      -1.54100000       2.50820000
N        2.29960000      -1.99840000       1.59010000
H       -0.75290000       1.97830000       0.26150000
H       -0.29830000       1.28100000      -1.31720000
H        2.10670000       1.51250000      -0.74870000
H        1.66930000       2.31180000       0.78070000
H        2.73710000      -1.28960000      -0.45880000
H        4.02890000      -0.57690000       2.06050000
H        1.44900000       0.71920000       2.98230000
H        1.41390000      -1.90650000       3.51400000
H        0.18300000      -1.82860000       2.20400000
