18
Properties=species:S:1:pos:R:3 gdb_73107=T pbc="F F F"
C       -0.15520000       1.54880000       0.13640000
C        0.05150000       0.05480000       0.03450000
C       -1.17680000      -0.88740000       0.19370000
C       -0.41940000      -1.68310000       1.30240000
C        0.79050000      -0.72590000       1.15590000
O        1.93100000      -1.28830000       0.51800000
C        1.88450000      -1.03020000      -0.82520000
N        2.69750000      -1.43400000      -1.69470000
O        0.82320000      -0.24890000      -1.13490000
H        0.80590000       2.07120000       0.15720000
H       -0.72720000       1.91370000      -0.72210000
H       -0.70890000       1.79660000       1.04710000
H       -2.07960000      -0.37820000       0.53770000
H       -1.40950000      -1.44470000      -0.71480000
H       -0.89000000      -1.66110000       2.28730000
H       -0.17420000      -2.71710000       1.05370000
H        1.11660000      -0.18560000       2.04670000
H        3.41850000      -2.00280000      -1.25760000
