23
Properties=species:S:1:pos:R:3 gdb_88202=T pbc="F F F"
C       -0.01100000       1.51140000      -0.20180000
C        0.01160000       0.03080000       0.08250000
O        1.27850000      -0.63960000       0.01140000
C        0.58410000      -0.61230000       1.27780000
C        1.28330000       0.15490000       2.38590000
C        2.40040000      -0.69900000       3.01270000
C        1.87280000      -2.05930000       3.49040000
C        1.17540000      -2.81320000       2.34890000
C        0.05530000      -1.96580000       1.72380000
H        0.78860000       2.04320000       0.31660000
H        0.10910000       1.68710000      -1.27620000
H       -0.97190000       1.94240000       0.10050000
H       -0.79220000      -0.52110000      -0.41300000
H        1.69600000       1.09140000       2.00380000
H        0.54310000       0.41450000       3.15570000
H        3.18320000      -0.85690000       2.25990000
H        2.86360000      -0.15340000       3.84200000
H        2.69280000      -2.66100000       3.89790000
H        1.16050000      -1.90470000       4.31360000
H        1.90950000      -3.05280000       1.56930000
H        0.77040000      -3.76600000       2.70720000
H       -0.74450000      -1.80900000       2.46110000
H       -0.38860000      -2.48330000       0.86760000
