21
Properties=species:S:1:pos:R:3 gdb_110682=T pbc="F F F"
C       -0.01210000       1.57790000      -0.09300000
C        0.01910000       0.07340000       0.20160000
C       -1.35510000      -0.57370000       0.08080000
C       -1.97730000      -0.87590000      -1.30950000
C       -1.06470000      -2.14520000      -1.45690000
C       -1.91150000      -3.21160000      -2.13950000
O       -3.18450000      -2.99700000      -1.50620000
C       -2.90050000      -1.92830000      -0.62690000
C       -1.50960000      -2.11580000       0.04850000
H        0.97750000       2.02870000       0.03020000
H       -0.34330000       1.77420000      -1.11840000
H       -0.70130000       2.09860000       0.58130000
H        0.73740000      -0.41440000      -0.46650000
H        0.39420000      -0.08850000       1.22090000
H       -2.05380000      -0.07960000       0.77000000
H       -2.25440000      -0.17610000      -2.09970000
H       -0.01650000      -2.05850000      -1.73730000
H       -2.00140000      -3.06870000      -3.22390000
H       -1.56250000      -4.23410000      -1.94690000
H       -3.78510000      -1.64060000      -0.05990000
H       -1.24530000      -2.83890000       0.82230000
