19
Properties=species:S:1:pos:R:3 gdb_114706=T pbc="F F F"
O        0.15260000       1.15720000       0.58550000
C        0.00600000      -0.20740000       0.26330000
C       -1.40400000      -0.50990000      -0.24060000
C       -1.70660000      -2.01380000      -0.43830000
C       -2.78240000      -2.33690000       0.59630000
O       -3.79270000      -3.22940000       0.24420000
C       -2.43380000      -2.12930000       2.05760000
C       -3.12190000      -1.04160000       1.25090000
O       -2.34430000       0.00140000       0.73490000
H       -0.61480000       1.37740000       1.12860000
H        0.73480000      -0.43840000      -0.52230000
H        0.23530000      -0.85550000       1.12680000
H       -1.57050000       0.06140000      -1.16100000
H       -2.12370000      -2.21020000      -1.42900000
H       -0.80270000      -2.62350000      -0.32500000
H       -3.47290000      -4.12330000       0.40900000
H       -3.05850000      -2.65450000       2.77310000
H       -1.39880000      -1.99610000       2.35420000
H       -4.13890000      -0.75060000       1.48680000
