16
Properties=species:S:1:pos:R:3 gdb_128515=T pbc="F F F"
C       -0.46840000       0.56590000       0.44500000
O        0.55430000       0.75790000      -0.53250000
C        0.91590000      -0.29820000      -1.27350000
C        0.53480000      -1.63440000      -1.35380000
N       -0.45130000      -2.31580000      -0.58550000
C        1.37250000      -2.13550000      -2.38630000
O        1.34990000      -3.41730000      -2.81410000
N        2.18620000      -1.23660000      -2.90200000
N        1.88480000      -0.10120000      -2.19460000
H       -1.40340000       0.24250000      -0.01960000
H       -0.17220000      -0.18150000       1.18550000
H       -0.60000000       1.53860000       0.92160000
H       -0.03840000      -3.10030000      -0.08910000
H       -1.16420000      -2.71300000      -1.19070000
H        2.01040000      -3.48980000      -3.51470000
H        2.36730000       0.75830000      -2.38540000
