14
Properties=species:S:1:pos:R:3 gdb_34471=T pbc="F F F"
N        0.09190000      -1.06580000       0.03040000
C        0.01440000       0.08790000       0.00780000
C       -0.02940000       1.51910000      -0.02400000
O       -1.09940000       2.11360000       0.66660000
C       -1.34960000       3.38740000       0.04980000
C       -0.07340000       3.66820000      -0.72340000
O        1.02190000       3.65980000       0.25320000
C        1.29450000       2.31390000      -0.08980000
C        0.36630000       2.28850000      -1.26660000
H       -2.22870000       3.33500000      -0.60890000
H       -1.52290000       4.12140000       0.84070000
H       -0.05450000       4.54510000      -1.36940000
H        2.27810000       1.90170000       0.09910000
H        0.42800000       1.92110000      -2.28070000
