18
Properties=species:S:1:pos:R:3 gdb_71109=T pbc="F F F"
C       -0.02730000       1.51040000       0.03680000
C        0.04840000       0.00230000       0.02330000
C        0.69200000      -0.72170000      -1.18970000
C        0.47340000      -2.14980000      -0.68940000
C       -0.80400000      -2.18230000       0.10250000
N        0.52400000      -2.16770000       0.77860000
C        0.75170000      -0.74340000       1.17520000
C       -1.29810000      -0.76300000       0.07130000
O       -2.41740000      -0.32800000       0.07140000
H        0.96910000       1.96000000      -0.02410000
H       -0.62070000       1.87860000      -0.80550000
H       -0.50710000       1.86800000       0.95310000
H        0.17170000      -0.51630000      -2.13030000
H        1.75220000      -0.47670000      -1.31320000
H        0.84370000      -3.02450000      -1.21050000
H       -1.44330000      -3.04640000       0.22160000
H        1.82710000      -0.54890000       1.23190000
H        0.30230000      -0.55580000       2.15530000
