24
Properties=species:S:1:pos:R:3 gdb_6172=T pbc="F F F"
C        0.15160000       0.85250000       1.68840000
C       -0.51030000      -0.53240000       1.75660000
C       -1.24570000      -0.72560000       3.09150000
C       -1.45150000      -0.73240000       0.58010000
C       -0.94040000      -1.12180000      -0.78950000
C       -1.82000000      -2.07890000      -0.01360000
C       -1.20140000      -3.35910000       0.51790000
C       -3.25120000      -2.25330000      -0.48920000
H        0.86010000       0.99390000       2.51170000
H        0.69230000       0.98720000       0.74650000
H       -0.60000000       1.64810000       1.75770000
H        0.28800000      -1.28300000       1.69700000
H       -2.06040000       0.00140000       3.19470000
H       -1.68260000      -1.72600000       3.16590000
H       -0.56930000      -0.58660000       3.94180000
H       -2.26680000      -0.00870000       0.57510000
H       -1.34940000      -0.62670000      -1.66460000
H        0.11440000      -1.36810000      -0.87600000
H       -1.21110000      -4.13670000      -0.25540000
H       -0.16330000      -3.22310000       0.83030000
H       -1.76210000      -3.74710000       1.37700000
H       -3.31260000      -2.99990000      -1.29060000
H       -3.90220000      -2.59090000       0.32650000
H       -3.66240000      -1.31570000      -0.87660000
