19
Properties=species:S:1:pos:R:3 gdb_102227=T pbc="F F F"
C        0.79520000       0.47210000       0.82160000
O       -0.30880000       0.62460000      -0.08070000
C       -1.31830000      -0.26200000      -0.07100000
N       -1.02240000      -1.61410000       0.23500000
C       -0.02250000      -2.39600000      -0.33000000
C       -0.22940000      -3.88510000      -0.10440000
O        0.92640000      -1.94380000      -0.93330000
N       -2.52820000       0.02820000      -0.29930000
C       -2.90190000       1.41870000      -0.48190000
H        1.29120000       1.44390000       0.83730000
H        0.44470000       0.22920000       1.82970000
H        1.48190000      -0.29340000       0.45920000
H       -1.86880000      -2.10310000       0.49140000
H       -0.48410000      -4.10320000       0.93700000
H       -1.04970000      -4.24880000      -0.73340000
H        0.68410000      -4.41090000      -0.37960000
H       -3.88850000       1.58250000      -0.03690000
H       -2.18710000       2.12840000      -0.04880000
H       -2.99040000       1.64450000      -1.55210000
