18
Properties=species:S:1:pos:R:3 gdb_38430=T pbc="F F F"
C       -0.03050000       1.43550000       0.17460000
C        1.28790000       0.77770000      -0.11220000
C        1.83220000       0.12950000       1.16590000
C        0.53000000      -0.74000000       1.26650000
C        0.72410000      -2.27660000       1.17020000
O        0.03420000      -2.80440000       2.32670000
C       -0.47280000      -1.71900000       2.95750000
N       -0.27580000      -0.56080000       2.48450000
C        0.00820000      -0.05550000      -0.00710000
H       -0.23870000       1.85180000       1.15580000
H       -0.46840000       1.98320000      -0.65370000
H        1.87150000       1.01290000      -0.99320000
H        2.71880000      -0.48950000       1.00270000
H        2.01320000       0.80020000       2.01100000
H        0.26930000      -2.71260000       0.27540000
H        1.77100000      -2.58890000       1.22650000
H       -1.03100000      -1.94900000       3.85870000
H       -0.55890000      -0.56020000      -0.78190000
