22
Properties=species:S:1:pos:R:3 gdb_121748=T pbc="F F F"
C       -0.64030000       1.10460000      -0.48280000
C        0.48220000       0.24460000       0.10150000
N        1.22020000      -0.48860000      -0.91480000
C        1.16520000      -1.84650000      -1.04110000
O        0.49400000      -2.55530000      -0.30910000
C        2.03470000      -2.41970000      -2.15580000
C        1.45600000      -3.71540000      -2.70900000
O        2.36820000      -4.22740000      -3.65700000
C        1.93950000      -5.44370000      -4.21930000
H       -0.25000000       1.84640000      -1.18860000
H       -1.36870000       0.48280000      -1.01110000
H       -1.16130000       1.64490000       0.31400000
H        1.17840000       0.86970000       0.67470000
H        0.07690000      -0.50990000       0.77880000
H        1.77110000       0.03280000      -1.57730000
H        2.17530000      -1.69580000      -2.96600000
H        3.02950000      -2.62970000      -1.74370000
H        1.29120000      -4.42530000      -1.88660000
H        0.47420000      -3.53020000      -3.17650000
H        1.81310000      -6.22620000      -3.45430000
H        0.98240000      -5.33310000      -4.75410000
H        2.70500000      -5.76490000      -4.93010000
