18
Properties=species:S:1:pos:R:3 gdb_62058=T pbc="F F F"
O       -0.25620000       1.36410000      -0.06030000
C        0.01110000      -0.02560000      -0.01020000
C        0.61550000      -0.57370000      -1.31480000
C       -0.30100000      -0.33150000      -2.52070000
C        0.35030000      -0.76010000      -3.81280000
C        0.18990000      -0.00360000      -5.05990000
O        1.39610000       0.08760000      -4.29870000
C        0.87710000      -0.35730000       1.14150000
N        1.57800000      -0.59930000       2.02780000
H        0.58270000       1.82870000      -0.16560000
H       -0.96430000      -0.49560000       0.16280000
H        1.58500000      -0.09070000      -1.48730000
H        0.81550000      -1.64410000      -1.18710000
H       -1.24280000      -0.88140000      -2.39120000
H       -0.55190000       0.73180000      -2.57560000
H        0.57880000      -1.82510000      -3.89370000
H        0.27900000      -0.51120000      -6.01920000
H       -0.42820000       0.89340000      -5.06490000
