21
Properties=species:S:1:pos:R:3 gdb_72654=T pbc="F F F"
C       -0.28770000       1.49380000       0.16470000
C       -0.00340000       0.01430000       0.04140000
C        1.13560000      -0.40260000      -0.94640000
C        1.95060000      -1.00100000       0.23500000
C        0.76870000      -0.70400000       1.20540000
O        1.06040000       0.13600000       2.30080000
C       -0.14050000      -1.89310000       1.55740000
C       -1.05340000      -2.01310000       0.32800000
O       -1.22850000      -0.68400000      -0.14540000
H        0.63320000       2.04410000       0.37350000
H       -0.72010000       1.87230000      -0.76720000
H       -0.99220000       1.68120000       0.97890000
H        0.80460000      -1.12880000      -1.69180000
H        1.61300000       0.43120000      -1.46540000
H        2.24070000      -2.05130000       0.14010000
H        2.83310000      -0.41220000       0.49480000
H        1.58900000      -0.36440000       2.93140000
H        0.40420000      -2.81700000       1.77490000
H       -0.72840000      -1.61340000       2.43680000
H       -0.59160000      -2.64920000      -0.44430000
H       -2.04140000      -2.42280000       0.55290000
