18
Properties=species:S:1:pos:R:3 gdb_80075=T pbc="F F F"
C       -0.39760000       1.45050000      -0.22060000
N       -0.01080000       0.06340000       0.01750000
C        1.33490000      -0.44040000      -0.28390000
C        2.47840000       0.44310000      -0.60550000
C        3.08190000       1.24640000       0.28190000
C        2.66860000       1.30810000       1.69990000
O        1.39530000       1.91100000       2.02140000
C        1.50560000       0.49560000       2.12600000
C        0.79880000      -0.38610000       1.13150000
H        0.41690000       2.17710000      -0.17350000
H       -0.86480000       1.49340000      -1.21050000
H       -1.14770000       1.73510000       0.52200000
H        1.32380000      -1.38570000      -0.82440000
H        2.85180000       0.40210000      -1.62560000
H        3.93580000       1.84670000      -0.01800000
H        3.44330000       1.54810000       2.42610000
H        1.48630000       0.12250000       3.14980000
H        0.44340000      -1.31500000       1.57590000
