18
Properties=species:S:1:pos:R:3 gdb_81127=T pbc="F F F"
C        0.55500000       1.66870000       0.65740000
C        0.18900000       0.23270000       0.32350000
C        0.85490000      -0.58260000      -0.82230000
C        2.15410000      -0.73690000       0.00150000
C        0.92930000      -1.01010000       0.91070000
C        0.86490000      -1.61520000       2.29680000
C        1.44040000      -0.73070000       3.30650000
N        1.89880000      -0.01550000       4.08950000
O        0.34520000      -1.82190000      -0.17740000
H        1.63100000       1.85680000       0.64250000
H        0.08590000       2.35220000      -0.05830000
H        0.18870000       1.93390000       1.65410000
H       -0.89320000       0.07400000       0.33350000
H        0.72690000      -0.49560000      -1.90060000
H        2.74290000      -1.62230000      -0.24110000
H        2.77130000       0.14110000       0.19340000
H       -0.18030000      -1.82550000       2.55050000
H        1.40000000      -2.57160000       2.30340000
