12
Properties=species:S:1:pos:R:3 gdb_4291=T pbc="F F F"
O        0.01080000       1.30160000       0.00770000
C       -0.05950000      -0.02830000       0.00080000
N       -1.17270000      -0.63310000       0.00370000
C       -1.18180000      -2.04450000      -0.00390000
N       -2.25340000      -2.73890000      -0.00190000
C        0.13070000      -2.69390000      -0.01470000
C        1.23630000      -1.95330000      -0.01680000
O        1.19040000      -0.57570000      -0.00900000
H        0.94130000       1.56130000       0.00400000
H       -3.05630000      -2.10570000       0.00600000
H        0.18460000      -3.77400000      -0.02090000
H        2.25740000      -2.30770000      -0.02430000
