18
Properties=species:S:1:pos:R:3 gdb_22789=T pbc="F F F"
O        0.10530000       1.29940000       0.33190000
C       -0.00480000      -0.05030000      -0.06950000
C       -1.45990000      -0.51950000      -0.06400000
C       -1.77150000      -2.05130000      -0.17040000
C       -2.69990000      -1.95050000       1.07890000
O       -2.47740000      -2.91520000       2.07330000
C       -2.11310000      -0.56710000       1.30190000
N       -1.94930000       0.19310000       2.30220000
O       -2.61450000      -0.32890000       3.43950000
H       -0.27950000       1.35940000       1.21650000
H        0.40970000      -0.11510000      -1.08140000
H        0.58990000      -0.71720000       0.57580000
H       -2.03980000       0.08010000      -0.77350000
H       -2.22970000      -2.40220000      -1.09510000
H       -0.89730000      -2.66250000       0.06570000
H       -3.76150000      -1.89160000       0.78980000
H       -2.69500000      -2.50030000       2.91700000
H       -2.38330000       0.30220000       4.12910000
