19
Properties=species:S:1:pos:R:3 gdb_1293=T pbc="F F F"
C       -0.03290000       1.54620000      -0.02470000
C       -0.00610000       0.01740000      -0.00220000
O        0.67260000      -0.49990000      -1.14590000
C        0.72150000      -0.53260000       1.22430000
C        0.68260000      -2.06010000       1.31750000
C        1.45130000      -2.59550000       2.51720000
O        1.33050000      -4.01080000       2.52200000
H        0.98640000       1.94560000      -0.02830000
H       -0.54560000       1.91490000      -0.92090000
H       -0.56210000       1.94560000       0.84690000
H       -1.04490000      -0.35580000       0.01420000
H        0.20780000      -0.19530000      -1.93120000
H        1.76260000      -0.18500000       1.18400000
H        0.27300000      -0.08800000       2.12190000
H       -0.35620000      -2.40670000       1.38930000
H        1.09840000      -2.49420000       0.40370000
H        2.50760000      -2.28630000       2.44940000
H        1.04660000      -2.16010000       3.44670000
H        1.83150000      -4.35190000       3.26830000
