20
Properties=species:S:1:pos:R:3 gdb_35430=T pbc="F F F"
N        0.04080000      -1.18270000       0.02950000
C        0.00420000      -0.02750000      -0.00070000
C       -0.03460000       1.43290000      -0.02560000
C       -0.83760000       2.00950000       1.17940000
C       -0.43870000       3.47180000       1.43550000
C        0.00530000       4.17550000       0.11750000
C        1.39160000       3.50190000       0.35020000
C        1.05230000       3.53170000       1.86530000
C        1.39350000       2.04610000      -0.14370000
H       -0.57850000       1.70900000      -0.93520000
H       -1.90640000       1.92160000       0.95930000
H       -0.65030000       1.41610000       2.08060000
H       -1.17640000       3.97310000       2.06620000
H       -0.54020000       3.96960000      -0.80800000
H        0.06770000       5.25790000       0.25270000
H        2.28630000       4.02990000       0.01280000
H        1.30580000       4.49330000       2.31930000
H        1.43800000       2.72200000       2.49310000
H        2.10870000       1.46130000       0.44440000
H        1.71490000       1.98100000      -1.18830000
