15
Properties=species:S:1:pos:R:3 gdb_32354=T pbc="F F F"
C       -0.02990000       1.42310000      -0.01190000
O       -0.00530000      -0.00090000      -0.01300000
C        0.61810000      -0.60660000       1.02560000
C        0.66560000      -1.97190000       1.05850000
N        1.29620000      -2.57200000       2.11050000
C        1.90460000      -1.89170000       3.17000000
O        2.45720000      -2.47790000       4.08690000
C        1.77810000      -0.44560000       3.00300000
N        1.17980000       0.14230000       2.00610000
H        0.98120000       1.84170000      -0.03200000
H       -0.56810000       1.70340000      -0.91850000
H       -0.54920000       1.81470000       0.86830000
H        0.23010000      -2.60250000       0.29570000
H        1.34750000      -3.58050000       2.16240000
H        2.22280000       0.17100000       3.77970000
