20
Properties=species:S:1:pos:R:3 gdb_118933=T pbc="F F F"
C        0.26630000       0.77510000       0.49240000
O       -0.36270000       0.27160000      -0.67720000
C        0.45310000      -0.52530000      -1.49580000
C        0.53220000      -2.01210000      -1.08690000
C       -0.84730000      -2.58860000      -0.77730000
C        1.41540000      -2.84210000      -2.05510000
O        2.37110000      -3.10380000      -0.98200000
C        1.61670000      -2.38650000      -0.08080000
N        1.80530000      -2.17290000       1.14110000
H        0.55810000      -0.02220000       1.18460000
H        1.16180000       1.36120000       0.23480000
H       -0.45900000       1.43580000       0.97360000
H        0.00100000      -0.48920000      -2.49580000
H        1.46890000      -0.10490000      -1.57470000
H       -1.50700000      -2.48910000      -1.64620000
H       -0.78350000      -3.64720000      -0.50970000
H       -1.30300000      -2.04660000       0.05330000
H        0.97700000      -3.77220000      -2.42540000
H        1.88950000      -2.29170000      -2.87310000
H        2.66320000      -2.61700000       1.47250000
