16
Properties=species:S:1:pos:R:3 gdb_44689=T pbc="F F F"
N        0.05430000       1.28360000       0.14150000
C        0.00680000       0.03810000      -0.04120000
C       -1.23850000      -0.82140000       0.09720000
C       -0.71240000      -2.25250000      -0.00040000
C        0.76220000      -2.11980000      -0.49040000
C        1.28170000      -2.92600000       0.73010000
C       -0.15050000      -2.88470000       1.29690000
O       -0.64670000      -3.18600000       2.34030000
O        1.08360000      -0.73210000      -0.40830000
H        0.99790000       1.63870000      -0.02040000
H       -1.74790000      -0.60830000       1.03890000
H       -1.93420000      -0.58540000      -0.71320000
H       -1.35590000      -2.93430000      -0.55950000
H        1.03150000      -2.48770000      -1.48090000
H        1.59550000      -3.94600000       0.48470000
H        2.06100000      -2.44640000       1.32680000
