15
Properties=species:S:1:pos:R:3 gdb_124939=T pbc="F F F"
C        0.09260000       1.53550000       0.16680000
C       -0.05220000       0.04620000       0.08770000
C       -1.19500000      -0.66360000      -0.05630000
C       -2.58460000      -0.11680000      -0.16980000
C       -1.09990000      -2.12830000      -0.11090000
O       -2.03630000      -2.87390000      -0.23620000
O        0.16250000      -2.65770000      -0.00930000
N        1.33390000      -1.82920000       0.14320000
N        1.18760000      -0.60960000       0.18200000
H        0.74850000       1.88720000      -0.63640000
H       -0.86130000       2.05530000       0.09440000
H        0.57470000       1.81150000       1.11040000
H       -3.03910000      -0.45140000      -1.10790000
H       -3.21070000      -0.52720000       0.62920000
H       -2.61800000       0.97080000      -0.12550000
