16
Properties=species:S:1:pos:R:3 gdb_61691=T pbc="F F F"
C       -0.08110000       1.57750000      -0.04450000
C       -0.04770000       0.02710000      -0.00710000
N        0.67890000      -0.44790000       1.19210000
C        0.30240000      -0.18590000       2.47540000
O       -0.59430000       0.55300000       2.81600000
C       -1.42160000      -0.50940000      -0.03710000
C       -2.54420000      -0.93160000      -0.07900000
C        0.69080000      -0.47750000      -1.17580000
C        1.31600000      -0.87590000      -2.12010000
H        0.94270000       1.95870000      -0.04520000
H       -0.58920000       1.90690000      -0.95270000
H       -0.61300000       1.94340000       0.83250000
H        1.36100000      -1.17380000       1.03780000
H        0.94450000      -0.73150000       3.19620000
H       -3.53780000      -1.30640000      -0.10280000
H        1.85350000      -1.23100000      -2.96490000
