14
Properties=species:S:1:pos:R:3 gdb_45463=T pbc="F F F"
O        0.00010000      -0.00370000       0.08490000
C        0.00580000       1.18540000       0.00820000
O       -1.12190000       1.94100000      -0.09880000
C       -0.84840000       3.35020000      -0.16400000
C       -1.05670000       4.06840000       1.18330000
N        0.37860000       3.85400000       1.48000000
C        0.67280000       3.53070000       0.05890000
C        1.23680000       2.12860000      -0.02810000
O        2.37250000       1.75750000      -0.10050000
H       -1.33120000       3.75160000      -1.05340000
H       -1.34530000       5.11800000       1.04070000
H       -1.74670000       3.58950000       1.88380000
H        0.89930000       4.62480000       1.87820000
H        1.19920000       4.27930000      -0.53750000
