18
Properties=species:S:1:pos:R:3 gdb_91524=T pbc="F F F"
C       -0.09820000       1.50060000       0.03260000
N        0.11830000       0.05910000      -0.00860000
H       -1.41800000      -0.90560000       0.95950000
C        1.15520000      -0.48040000      -0.94350000
C        1.83640000      -1.21140000       0.21630000
C        2.23700000      -0.24300000       1.28880000
C        0.78030000      -0.57900000       1.13650000
C       -0.04480000      -1.25450000       2.17860000
O       -1.35210000      -1.29490000       1.85320000
O        0.39330000      -1.73770000       3.18880000
H        0.82490000       2.08330000       0.17830000
H       -0.56230000       1.82310000      -0.90440000
H       -0.78520000       1.73650000       0.85120000
H        0.71670000      -1.13020000      -1.70560000
H        1.76410000       0.28990000      -1.43370000
H        2.14990000      -2.24620000       0.21420000
H        2.69120000      -0.68700000       2.16760000
H        2.59640000       0.74980000       1.03200000
