20
Properties=species:S:1:pos:R:3 gdb_73467=T pbc="F F F"
C        0.01230000       1.48800000      -0.04510000
C       -0.00040000      -0.02160000       0.02580000
C       -1.24580000      -0.66320000      -0.57200000
O       -1.28020000      -2.08310000      -0.46480000
C       -0.04550000      -2.63680000      -0.02050000
C        0.24270000      -2.14860000       1.40920000
C        0.70970000      -0.73140000       1.12500000
N        1.30270000      -0.67040000      -0.24440000
C        1.11870000      -2.02390000      -0.81340000
H        0.96470000       1.87450000       0.32500000
H       -0.11110000       1.83220000      -1.07830000
H       -0.79720000       1.91840000       0.55500000
H       -2.14080000      -0.26240000      -0.07700000
H       -1.31440000      -0.37670000      -1.63420000
H       -0.14520000      -3.71920000      -0.11780000
H       -0.65120000      -2.20650000       2.03560000
H        1.04030000      -2.73120000       1.88430000
H        1.22580000      -0.16540000       1.89520000
H        2.04700000      -2.58820000      -0.67310000
H        0.90440000      -1.97240000      -1.88490000
