17
Properties=species:S:1:pos:R:3 gdb_42711=T pbc="F F F"
O        0.09670000       0.05970000       0.26250000
C        0.01200000       1.23340000       0.12110000
C       -1.09180000       2.33320000      -0.06030000
C       -0.72400000       3.05640000       1.25330000
C        0.62930000       3.13740000       1.28710000
C        1.00940000       2.49280000      -0.01610000
C        2.04850000       2.34850000      -1.13230000
C        0.82380000       2.33280000      -2.13090000
C       -0.05330000       3.00040000      -1.01170000
H       -2.14340000       2.13850000      -0.26770000
H       -1.42770000       3.26970000       2.04560000
H        1.26200000       3.45650000       2.10340000
H        2.67140000       3.23830000      -1.25990000
H        2.68680000       1.46240000      -1.11020000
H        0.93090000       2.91840000      -3.04470000
H        0.52230000       1.31780000      -2.39950000
H       -0.15160000       4.08420000      -1.10960000
