20
Properties=species:S:1:pos:R:3 gdb_12514=T pbc="F F F"
C       -0.23360000       1.51310000       0.05870000
C        0.03400000       0.03050000       0.01560000
C       -0.01880000      -0.65790000      -1.12780000
C        0.17500000      -2.14500000      -1.31410000
C        1.39760000      -2.76200000      -0.61740000
C        1.34970000      -2.71380000       0.90960000
O        1.48020000      -1.41300000       1.44710000
C        0.32250000      -0.60480000       1.36900000
H        0.64190000       2.06220000       0.42930000
H       -0.49460000       1.90770000      -0.92660000
H       -1.05820000       1.74810000       0.74510000
H       -0.25160000      -0.10220000      -2.03470000
H       -0.72790000      -2.67580000      -0.97180000
H        0.24420000      -2.35430000      -2.38690000
H        1.48260000      -3.81450000      -0.91790000
H        2.30980000      -2.25530000      -0.95230000
H        0.41640000      -3.18070000       1.27190000
H        2.18600000      -3.28780000       1.32320000
H        0.47500000       0.18670000       2.11020000
H       -0.56030000      -1.18370000       1.69740000
