9
Properties=species:S:1:pos:R:3 gdb_3943=T pbc="F F F"
O       -0.08120000       1.28160000       0.04220000
C        0.05730000      -0.03420000       0.00040000
N        1.14920000      -0.70860000      -0.06430000
N        0.67110000      -2.02030000      -0.07920000
C       -0.68380000      -2.10470000      -0.02400000
O       -1.44250000      -3.02570000      -0.01760000
O       -1.08300000      -0.74010000       0.02960000
H        0.80290000       1.67210000       0.01520000
H        1.30830000      -2.79480000      -0.12760000
