18
Properties=species:S:1:pos:R:3 gdb_103266=T pbc="F F F"
C        0.15370000       1.08110000      -0.32420000
O       -0.08900000      -0.19010000       0.25190000
C       -1.39300000      -0.66180000       0.09970000
C       -2.44540000       0.05650000       0.91970000
C       -1.82240000      -1.25610000      -1.21900000
N       -0.71520000      -1.89000000      -1.93440000
C       -0.37980000      -2.70230000      -0.82950000
O        0.50110000      -3.49280000      -0.66290000
C       -1.55310000      -2.17040000      -0.01520000
H        1.23030000       1.25230000      -0.26130000
H       -0.15560000       1.11310000      -1.37900000
H       -0.36190000       1.88810000       0.21310000
H       -2.53090000       1.10680000       0.62440000
H       -3.42660000      -0.40700000       0.78660000
H       -2.18580000       0.01850000       1.98170000
H       -2.76380000      -1.06040000      -1.71740000
H       -0.00950000      -1.36350000      -2.43750000
H       -2.23490000      -2.73270000       0.60740000
