20
Properties=species:S:1:pos:R:3 gdb_26149=T pbc="F F F"
C        0.04980000       1.54550000      -0.03230000
C        0.01370000       0.00860000       0.07040000
C        0.78050000      -0.47470000       1.31490000
C       -1.39620000      -0.51920000       0.04100000
C       -1.99770000      -1.24050000      -0.95160000
N       -1.59250000      -1.65100000      -2.21880000
O       -3.28210000      -1.53910000      -0.63920000
C       -3.52600000      -0.99460000       0.59880000
C       -2.41890000      -0.36280000       1.04940000
H        1.08110000       1.91520000      -0.04530000
H       -0.45230000       1.89100000      -0.94050000
H       -0.45920000       2.00280000       0.82330000
H        0.53920000      -0.38720000      -0.81080000
H        0.31090000      -0.10230000       2.23200000
H        0.79610000      -1.56720000       1.37060000
H        1.81480000      -0.11460000       1.30230000
H       -0.58580000      -1.69260000      -2.30440000
H       -2.00100000      -2.54060000      -2.47980000
H       -4.51600000      -1.15620000       0.98860000
H       -2.32240000       0.15310000       1.99270000
