20
Properties=species:S:1:pos:R:3 gdb_98356=T pbc="F F F"
C        0.06180000       1.60840000       0.17070000
C        0.00810000       0.08830000       0.02450000
C       -1.42940000      -0.42850000      -0.00860000
O       -2.37900000       0.33460000       0.05120000
N       -1.61290000      -1.79220000      -0.11730000
C       -0.54760000      -2.78150000      -0.09000000
C       -2.96720000      -2.31270000      -0.05610000
C       -3.40990000      -2.91810000      -1.37880000
O       -4.12530000      -3.87890000      -1.48070000
H        1.10030000       1.95110000       0.18880000
H       -0.45440000       2.09800000      -0.65780000
H       -0.42830000       1.92900000       1.09270000
H        0.52240000      -0.22330000      -0.89350000
H        0.54720000      -0.39570000       0.84830000
H       -0.43380000      -3.23060000       0.90690000
H       -0.77200000      -3.58930000      -0.79470000
H        0.40450000      -2.34320000      -0.38290000
H       -3.07880000      -3.06060000       0.73750000
H       -3.62560000      -1.46330000       0.15920000
H       -3.01800000      -2.37600000      -2.27080000
