17
Properties=species:S:1:pos:R:3 gdb_69267=T pbc="F F F"
C        0.03140000       1.52950000      -0.08020000
C       -0.03910000       0.02790000       0.05000000
C       -1.19080000      -0.70020000      -0.63740000
C       -1.87290000      -1.66260000       0.32710000
O       -0.95420000      -2.55220000       0.98600000
C        0.10030000      -2.02200000       1.65040000
O        0.66080000      -2.64910000       2.50550000
C        0.56620000      -0.65460000       1.21260000
O        1.21310000      -0.65460000      -0.07120000
H        0.91480000       1.91980000       0.43090000
H        0.08990000       1.81640000      -1.13580000
H       -0.86030000       1.99980000       0.34770000
H       -1.93570000       0.01210000      -1.00670000
H       -0.79230000      -1.24290000      -1.50010000
H       -2.42800000      -1.10620000       1.09370000
H       -2.57730000      -2.31800000      -0.18890000
H        1.08430000      -0.09790000       1.99000000
