22
Properties=species:S:1:pos:R:3 gdb_122319=T pbc="F F F"
O        0.06900000       1.40740000       0.24550000
C        0.07490000       0.01320000      -0.02130000
C       -1.35490000      -0.49490000       0.10420000
C       -1.47710000      -2.00020000      -0.17110000
C       -2.89340000      -2.48960000      -0.05910000
C       -3.49120000      -2.98340000       1.19900000
N       -3.25410000      -3.96000000       0.11490000
C       -4.39100000      -3.74790000      -0.85060000
C       -3.98690000      -2.27410000      -1.11020000
H        0.97120000       1.73170000       0.17220000
H        0.45690000      -0.19790000      -1.03410000
H        0.72410000      -0.52660000       0.68800000
H       -1.72140000      -0.26630000       1.11190000
H       -1.98530000       0.07050000      -0.59290000
H       -1.09390000      -2.22600000      -1.17590000
H       -0.85330000      -2.56500000       0.53260000
H       -2.82880000      -3.12680000       2.04770000
H       -4.51650000      -2.72930000       1.46420000
H       -4.27270000      -4.40030000      -1.71800000
H       -5.37710000      -3.92370000      -0.40710000
H       -4.72200000      -1.49050000      -0.90420000
H       -3.58510000      -2.12030000      -2.11450000
