18
Properties=species:S:1:pos:R:3 gdb_13012=T pbc="F F F"
C       -0.11510000       1.52300000       0.05560000
C        0.00580000      -0.00600000      -0.02730000
C        0.84360000      -0.48740000      -1.19890000
C        1.85800000      -1.26880000      -0.82120000
C        1.87510000      -1.39460000       0.66600000
O        2.06570000      -0.12410000       1.34220000
C        0.72970000      -0.62360000       1.18320000
C       -0.02470000      -0.92300000       2.44900000
H        0.87360000       1.96740000       0.19480000
H       -0.55680000       1.93390000      -0.85760000
H       -0.75010000       1.82200000       0.89620000
H       -1.00540000      -0.43400000      -0.09480000
H        0.63510000      -0.17490000      -2.21690000
H        2.59210000      -1.72750000      -1.47210000
H        2.30620000      -2.25100000       1.17680000
H       -0.42990000      -0.00320000       2.88630000
H       -0.86390000      -1.59880000       2.25320000
H        0.63400000      -1.38530000       3.18840000
