21
Properties=species:S:1:pos:R:3 gdb_81769=T pbc="F F F"
C       -0.00300000       1.52350000       0.02100000
C        0.03720000       0.02260000      -0.00470000
C       -0.84620000      -0.85350000       0.83980000
C        0.64540000      -0.95750000       1.00940000
C        1.24170000      -1.79040000      -0.11220000
O        0.82390000      -3.13870000      -0.11270000
C        0.63160000      -0.80180000      -1.17400000
C       -0.30680000      -1.36720000      -2.22880000
O        1.73560000      -0.13850000      -1.78330000
H        0.95080000       1.94320000      -0.31500000
H       -0.79700000       1.91940000      -0.62510000
H       -0.19430000       1.89410000       1.03330000
H       -1.36230000      -0.33780000       1.64430000
H       -1.40600000      -1.68370000       0.42120000
H        1.13180000      -0.74970000       1.95490000
H        2.33370000      -1.70160000      -0.15770000
H        1.28470000      -3.59470000      -0.82410000
H       -1.10150000      -1.97180000      -1.78820000
H       -0.77600000      -0.55880000      -2.80390000
H        0.25310000      -1.99540000      -2.92960000
H        1.38600000       0.54060000      -2.37080000
