15
Properties=species:S:1:pos:R:3 gdb_25603=T pbc="F F F"
O        0.81340000       1.12550000       1.29960000
C        0.52660000       1.73750000       0.30560000
C        1.15780000       1.49070000      -1.06270000
N        1.26810000       2.72000000      -1.81630000
C        2.29690000       3.58560000      -1.48990000
C        3.08230000       3.65150000      -0.37770000
O        3.91970000       4.73700000      -0.53860000
C        3.59180000       5.23980000      -1.73700000
N        2.64250000       4.61300000      -2.35600000
H       -0.24590000       2.53890000       0.29850000
H        2.11520000       0.96720000      -0.91730000
H        0.48200000       0.81360000      -1.59940000
H        1.12380000       2.65010000      -2.81230000
H        3.17600000       3.09420000       0.53590000
H        4.14070000       6.10540000      -2.07330000
