21
Properties=species:S:1:pos:R:3 gdb_108349=T pbc="F F F"
O       -0.01340000       1.39380000      -0.22560000
C       -0.01260000       0.00330000       0.06860000
C       -1.43120000      -0.50660000       0.03210000
C       -1.61090000      -2.05830000       0.01460000
C       -2.47700000      -1.93960000      -1.28340000
C       -2.31380000      -0.39090000      -1.24680000
C       -3.33280000       0.45750000      -0.45320000
C       -3.84980000      -0.24320000       0.77260000
C       -2.46890000       0.34550000       0.80830000
H        0.89450000       1.70790000      -0.19000000
H        0.59440000      -0.55510000      -0.66350000
H        0.41980000      -0.19140000       1.06630000
H       -0.67210000      -2.59970000      -0.13620000
H       -2.10770000      -2.48530000       0.88910000
H       -2.00890000      -2.40200000      -2.15590000
H       -3.50180000      -2.31340000      -1.21210000
H       -1.92280000       0.10050000      -2.13780000
H       -3.83650000       1.32950000      -0.85290000
H       -4.59230000       0.31950000       1.33060000
H       -4.02190000      -1.31500000       0.79400000
H       -2.19610000       1.12280000       1.51180000
