16
Properties=species:S:1:pos:R:3 gdb_18517=T pbc="F F F"
C        0.04300000       1.51870000      -0.03590000
C        0.01220000       0.06540000       0.02640000
C       -0.01300000      -1.13750000       0.08250000
C       -0.03690000      -2.58740000       0.13760000
O        0.11650000      -3.14660000       1.48660000
C       -1.06670000      -3.92950000       1.30680000
C       -2.26680000      -3.05380000       1.13790000
C       -1.36570000      -3.33560000      -0.04580000
H        0.95590000       1.87900000      -0.52250000
H       -0.81220000       1.91020000      -0.59770000
H        0.00690000       1.95460000       0.96850000
H        0.74730000      -3.01000000      -0.50250000
H       -1.06180000      -4.94640000       1.68050000
H       -3.22240000      -3.56790000       1.10110000
H       -2.28270000      -2.07020000       1.59790000
H       -1.70420000      -3.78220000      -0.97010000
