20
Properties=species:S:1:pos:R:3 gdb_47924=T pbc="F F F"
O        0.07370000       0.04050000      -0.18480000
C       -0.00750000       1.24270000      -0.01460000
C       -1.36390000       1.94630000       0.01890000
C       -1.85430000       2.39790000      -1.37090000
C       -1.08050000       3.56460000      -1.98460000
O        0.26660000       3.20280000      -2.26420000
C        1.26190000       3.82720000      -1.48830000
C        1.21700000       3.43340000       0.00050000
N        1.11760000       2.00380000       0.21370000
H       -2.05800000       1.19810000       0.40840000
H       -1.36850000       2.79250000       0.71480000
H       -1.80260000       1.54530000      -2.05700000
H       -2.90990000       2.68780000      -1.29890000
H       -1.54700000       3.84860000      -2.93650000
H       -1.12060000       4.44730000      -1.32940000
H        2.21250000       3.50460000      -1.92710000
H        1.20980000       4.92590000      -1.57010000
H        2.12170000       3.80610000       0.49360000
H        0.37500000       3.92670000       0.49390000
H        1.96400000       1.46520000       0.08160000
