20
Properties=species:S:1:pos:R:3 gdb_103605=T pbc="F F F"
C       -0.83810000       1.18340000      -0.06270000
C        0.05190000      -0.04850000      -0.00280000
N        1.21020000      -0.08150000      -0.95100000
C        2.18790000      -0.45390000       0.12140000
C        2.65830000      -1.90810000       0.11400000
C        3.36500000       0.52660000       0.26260000
O        4.03180000       0.33680000       1.49510000
C        1.07780000      -0.14390000       1.13390000
O        1.07120000       0.08180000       2.31300000
H       -0.23460000       2.09440000      -0.03500000
H       -1.42710000       1.19160000      -0.98480000
H       -1.52710000       1.19230000       0.78760000
H       -0.56100000      -0.96250000      -0.03420000
H        1.12220000      -0.78820000      -1.67350000
H        3.20830000      -2.11190000      -0.81250000
H        3.33390000      -2.08430000       0.95410000
H        1.82210000      -2.61150000       0.17840000
H        4.10060000       0.35100000      -0.53090000
H        2.98860000       1.55310000       0.14410000
H        3.37380000       0.45210000       2.19350000
