20
Properties=species:S:1:pos:R:3 gdb_60644=T pbc="F F F"
C       -0.17040000       1.74640000       0.21490000
C        0.04700000       0.25060000       0.00250000
C        0.76120000      -0.52700000       1.11770000
C        0.17110000      -1.93700000       0.94900000
N        2.83900000      -1.36200000       2.11940000
H        2.66550000      -0.95260000       3.03340000
H        3.84810000      -1.42130000       2.02550000
C        2.28540000      -0.49610000       1.07280000
C       -1.27020000      -0.51450000      -0.15020000
O       -2.28200000      -0.13720000      -0.66800000
O       -1.14830000      -1.74810000       0.40370000
H        0.77890000       2.29000000       0.20930000
H       -0.80760000       2.14670000      -0.57730000
H       -0.66780000       1.93680000       1.17160000
H        0.58990000       0.09570000      -0.94300000
H        0.42600000      -0.12450000       2.08460000
H        0.07240000      -2.49160000       1.88180000
H        0.76180000      -2.53930000       0.24800000
H        2.62040000      -0.88840000       0.10390000
H        2.62920000       0.55100000       1.12470000
