19
Properties=species:S:1:pos:R:3 gdb_90045=T pbc="F F F"
C       -0.17900000       1.60700000      -0.19460000
C        0.00620000       0.12530000       0.06010000
O        0.94410000      -0.53290000      -0.90050000
C        1.80640000      -0.78830000       0.20390000
C        2.53580000      -1.80220000       1.10610000
C        2.15720000      -0.44890000       1.96810000
O        2.36570000      -0.24600000       3.31490000
C        2.70750000       0.35490000       0.78380000
C        0.76260000      -0.55340000       1.28090000
H        0.75480000       2.16890000      -0.18500000
H       -0.64770000       1.75280000      -1.17350000
H       -0.84580000       2.02590000       0.56650000
H       -0.96250000      -0.37560000      -0.02970000
H        1.98860000      -2.70600000       1.37770000
H        3.60370000      -1.98720000       0.95190000
H        3.29870000      -0.04830000       3.45530000
H        3.77920000       0.27440000       0.58250000
H        2.35390000       1.37830000       0.68270000
H        0.20320000      -1.43990000       1.58580000
