19
Properties=species:S:1:pos:R:3 gdb_53422=T pbc="F F F"
C       -0.12580000       1.42520000       0.14730000
C       -0.00350000      -0.02420000       0.08640000
C        0.10640000      -1.22210000       0.01790000
C        0.20330000      -2.67640000      -0.03680000
C        0.73900000      -3.29030000       1.27790000
C       -0.50260000      -3.36230000       2.19230000
C       -1.63740000      -3.78890000       1.24900000
C       -1.23630000      -3.27030000      -0.13670000
O       -1.89500000      -3.32910000      -1.13760000
H        0.46430000       1.90590000      -0.64080000
H       -1.16700000       1.74160000       0.02000000
H        0.22480000       1.81620000       1.10880000
H        0.77320000      -2.98320000      -0.91950000
H        1.11370000      -4.30020000       1.07290000
H        1.55610000      -2.70890000       1.70860000
H       -0.36400000      -4.04650000       3.03240000
H       -0.70930000      -2.36940000       2.60450000
H       -1.71100000      -4.88150000       1.17350000
H       -2.63090000      -3.42450000       1.52160000
