18
Properties=species:S:1:pos:R:3 gdb_125991=T pbc="F F F"
C       -0.28730000       1.54830000       0.05190000
C        0.01010000       0.05310000       0.03980000
C        1.19720000      -0.42370000      -0.90640000
N        1.84540000      -0.88520000       0.32400000
N        2.88040000      -1.52230000       0.86040000
C        2.52510000      -1.55050000       2.16210000
C        1.26470000      -0.94070000       2.43270000
N        0.65690000      -0.75270000       3.68930000
C        0.86660000      -0.51800000       1.17290000
H        0.62640000       2.12830000       0.21360000
H       -0.73670000       1.86560000      -0.89510000
H       -0.98790000       1.79720000       0.85510000
H       -0.90640000      -0.51620000      -0.14820000
H        0.95230000      -1.22380000      -1.61050000
H        1.73400000       0.37890000      -1.42070000
H        3.19040000      -2.00520000       2.88340000
H        1.03290000      -1.38740000       4.38270000
H       -0.34730000      -0.87910000       3.65610000
