18
Properties=species:S:1:pos:R:3 gdb_54322=T pbc="F F F"
O       -0.06990000      -0.08360000       0.00890000
C       -0.04820000       1.10410000      -0.20080000
O        1.06110000       1.72230000      -0.61620000
C       -1.29220000       1.96180000      -0.04570000
C       -2.51560000       1.38370000      -0.75720000
C       -2.42300000       1.31440000       0.73140000
C       -1.19350000       3.45940000       0.04580000
C       -0.21470000       4.17840000       0.90200000
N       -0.02090000       4.12280000      -0.55970000
H        0.86760000       2.68090000      -0.79440000
H       -0.25550000       4.99340000      -1.02330000
H       -3.20380000       2.09080000      -1.20870000
H       -2.35890000       0.46910000      -1.31580000
H       -2.19200000       0.35460000       1.17600000
H       -3.05330000       1.97140000       1.32130000
H       -2.14870000       3.96230000      -0.09200000
H       -0.51180000       5.12530000       1.34200000
H        0.52220000       3.61880000       1.46980000
