18
Properties=species:S:1:pos:R:3 gdb_46567=T pbc="F F F"
O       -0.10800000      -0.05130000      -0.21430000
C       -0.02990000       1.13720000      -0.06580000
C       -1.26060000       2.10670000       0.00690000
C       -0.75030000       3.55540000       0.30960000
C        0.65740000       3.24380000       0.78900000
C        2.13980000       3.70080000       0.86540000
N        2.25000000       2.18520000       1.18060000
C        1.01380000       2.43120000       2.06360000
C        1.20010000       2.04480000       0.03260000
H       -1.82250000       2.03530000      -0.92900000
H       -1.92440000       1.73050000       0.79170000
H       -0.72930000       4.15970000      -0.60330000
H       -1.37720000       4.07480000       1.03940000
H        2.63470000       3.99090000      -0.06520000
H        2.45340000       4.32820000       1.70370000
H        1.23370000       2.98880000       2.97780000
H        0.45780000       1.51700000       2.29010000
H        1.64370000       2.20110000      -0.95830000
