12
Properties=species:S:1:pos:R:3 gdb_3698=T pbc="F F F"
C       -0.00440000       1.44280000       0.02180000
C        0.00700000      -0.04760000       0.01260000
N       -0.14030000      -0.75020000      -1.09560000
N       -0.06520000      -2.03990000      -0.63370000
C        0.11920000      -2.02510000       0.69620000
O        0.22570000      -3.16020000       1.39420000
N        0.17210000      -0.79690000       1.15470000
H        0.94060000       1.83520000       0.41100000
H       -0.15660000       1.82080000      -0.99040000
H       -0.80310000       1.82010000       0.66820000
H       -0.14590000      -2.82230000      -1.25980000
H        0.35160000      -2.90590000       2.31730000
