14
Properties=species:S:1:pos:R:3 gdb_129588=T pbc="F F F"
N        0.06040000       1.34910000       0.21560000
C       -0.03410000      -0.02110000       0.05650000
C       -1.16880000      -0.83330000       0.00580000
C       -2.50580000      -0.39700000       0.00950000
C       -3.63810000       0.01910000       0.01090000
C       -0.62360000      -2.14850000      -0.07410000
O       -1.35800000      -3.27120000      -0.14980000
N        0.69220000      -2.16920000      -0.08240000
N        1.03700000      -0.83670000      -0.01120000
H        0.75120000       1.79800000      -0.37170000
H       -0.84220000       1.79650000       0.11640000
H       -4.64270000       0.36110000       0.01810000
H       -0.73880000      -4.01080000      -0.20160000
H        2.00190000      -0.59270000       0.12500000
