19
Properties=species:S:1:pos:R:3 gdb_67891=T pbc="F F F"
O       -0.02950000       1.31660000       0.01530000
C        0.03250000      -0.08760000      -0.00100000
C        1.12830000      -0.66700000      -0.82520000
C        1.00370000      -1.82910000      -1.46720000
C       -0.24610000      -2.67110000      -1.36770000
C       -1.11480000      -2.24440000      -0.18160000
C       -0.39330000      -2.26090000       1.21590000
C       -0.50850000      -0.74050000       1.27360000
C       -1.31990000      -0.72120000      -0.02250000
H        0.67710000       1.63690000       0.58650000
H        2.03950000      -0.07870000      -0.90470000
H        1.81720000      -2.20300000      -2.08330000
H       -0.81460000      -2.61360000      -2.30840000
H        0.02910000      -3.72850000      -1.25500000
H       -2.05380000      -2.80160000      -0.16510000
H       -1.00040000      -2.75150000       1.98050000
H        0.61620000      -2.68400000       1.23880000
H       -0.64350000      -0.12970000       2.15930000
H       -2.20050000      -0.14720000      -0.28170000
