13
Properties=species:S:1:pos:R:3 gdb_131769=T pbc="F F F"
O        0.11340000       1.40090000      -0.12990000
C        0.05260000       0.00620000      -0.03000000
C       -1.35130000      -0.53630000       0.02910000
N       -2.30540000       0.32030000       0.13750000
O       -3.59290000      -0.14030000       0.22310000
N       -3.89260000      -1.55040000       0.16930000
N       -2.97640000      -2.35940000       0.06740000
C       -1.60230000      -1.96760000       0.00250000
N       -0.67000000      -2.82740000      -0.07360000
H       -0.69840000       1.76470000       0.24520000
H        0.55870000      -0.43860000      -0.89580000
H        0.58510000      -0.37720000       0.85760000
H       -1.06440000      -3.77210000      -0.07770000
