21
Properties=species:S:1:pos:R:3 gdb_62933=T pbc="F F F"
C       -0.13420000       1.61600000      -0.00950000
C        0.02260000       0.10370000       0.00090000
O       -1.24930000      -0.52190000      -0.07730000
C        1.06890000      -0.61160000      -0.89870000
C        2.37980000       0.17220000      -1.01850000
C        3.05370000       0.26450000       0.37990000
C        2.05130000       0.14540000       1.56300000
C        0.81470000      -0.63200000       1.10610000
O        1.23350000      -1.62900000       0.12840000
H        0.81040000       2.14920000       0.11330000
H       -0.57570000       1.94400000      -0.95920000
H       -0.81210000       1.92120000       0.79350000
H       -1.64890000      -0.27980000      -0.91990000
H        0.70990000      -1.02900000      -1.84560000
H        3.05440000      -0.33800000      -1.71350000
H        2.18260000       1.16100000      -1.44820000
H        3.75770000      -0.56600000       0.46050000
H        3.64520000       1.18060000       0.46460000
H        2.53150000      -0.38100000       2.39380000
H        1.75020000       1.12520000       1.95030000
H        0.22330000      -1.06500000       1.91700000
