17
Properties=species:S:1:pos:R:3 gdb_66950=T pbc="F F F"
O        0.04580000       1.34950000      -0.10250000
C        0.06830000      -0.01980000      -0.02520000
C       -0.23800000      -0.88150000      -1.24670000
C        0.44120000      -2.23630000      -1.03430000
C        0.04350000      -2.07340000       0.46220000
C       -1.07130000      -1.03640000       0.01260000
C        0.88500000      -0.86910000       0.91250000
C        2.20030000      -0.71600000       1.52370000
O        0.98400000      -0.48310000       2.27490000
H       -0.10720000       1.68130000       0.79100000
H       -0.53060000      -0.40410000      -2.17360000
H       -0.11880000      -3.04060000      -1.51910000
H        1.50890000      -2.33670000      -1.26170000
H       -0.09560000      -2.92050000       1.12910000
H       -2.12810000      -0.93960000       0.20860000
H        2.76760000      -1.59360000       1.83110000
H        2.79420000       0.17410000       1.32170000
