12
Properties=species:S:1:pos:R:3 gdb_46466=T pbc="F F F"
O       -0.01270000       0.01620000       0.28930000
C        0.00620000       1.17940000       0.02990000
O       -1.11860000       1.92600000      -0.16670000
C       -0.83100000       3.23190000      -0.68140000
C        0.68150000       3.38170000      -0.58900000
O        1.15290000       3.20540000       0.74540000
C        1.20960000       2.08010000      -0.14180000
C        1.38540000       4.30660000      -1.43710000
N        1.91220000       5.06130000      -2.13540000
H       -1.17510000       3.29530000      -1.71820000
H       -1.35240000       3.97350000      -0.07140000
H        2.18720000       1.67790000      -0.37850000
