22
Properties=species:S:1:pos:R:3 gdb_117341=T pbc="F F F"
C       -0.11780000       1.08960000       0.72670000
C       -0.11170000       0.11640000      -0.45520000
N       -1.34460000      -0.63860000      -0.58750000
C       -1.46520000      -1.91900000      -0.14130000
O       -0.56150000      -2.59850000       0.29950000
O       -2.75130000      -2.33180000      -0.28250000
C       -3.03840000      -3.68900000       0.13360000
C       -3.26580000      -3.73190000       1.64150000
C       -4.25180000      -4.12870000      -0.67350000
H        0.82680000       1.64110000       0.77350000
H       -0.92910000       1.82020000       0.63620000
H       -0.24830000       0.54970000       1.66900000
H        0.07250000       0.65800000      -1.39070000
H        0.68640000      -0.61970000      -0.33750000
H       -2.19340000      -0.16770000      -0.85510000
H       -2.16730000      -4.30030000      -0.11810000
H       -2.36500000      -3.41130000       2.16890000
H       -4.09850000      -3.07970000       1.92500000
H       -3.50470000      -4.75220000       1.95790000
H       -4.04730000      -4.06850000      -1.74580000
H       -4.51200000      -5.16250000      -0.42800000
H       -5.11660000      -3.49510000      -0.45160000
