20
Properties=species:S:1:pos:R:3 gdb_114757=T pbc="F F F"
O        0.02260000       1.27240000      -0.46510000
C        0.00820000      -0.15000000      -0.40050000
C       -1.39420000      -0.54410000       0.06520000
C       -2.52290000      -0.13410000      -0.92070000
N       -3.14190000      -1.34550000      -1.49980000
C       -2.19760000      -2.21990000      -2.20370000
C       -2.57400000      -2.50730000      -0.79630000
C       -1.59140000      -2.07240000       0.28500000
O       -0.33160000      -2.73750000       0.23300000
H        0.89290000       1.54760000      -0.76710000
H        0.24150000      -0.58900000      -1.38100000
H        0.75390000      -0.52840000       0.31020000
H       -1.54370000      -0.02030000       1.01380000
H       -3.31400000       0.40980000      -0.39600000
H       -2.15130000       0.52180000      -1.71310000
H       -2.63590000      -2.80350000      -3.00850000
H       -1.18990000      -1.86540000      -2.40080000
H       -3.25950000      -3.32020000      -0.56710000
H       -2.05240000      -2.24550000       1.26830000
H       -0.49460000      -3.68470000       0.27280000
