16
Properties=species:S:1:pos:R:3 gdb_34632=T pbc="F F F"
N        0.09010000      -1.13480000      -0.02490000
C        0.02030000       0.02080000       0.00420000
C       -0.02370000       1.44020000       0.05950000
C       -1.12570000       2.20310000       0.05850000
C       -0.80630000       3.67290000       0.10140000
C        0.73160000       3.72250000       0.29320000
C        1.21650000       2.28390000       0.08710000
C        2.54600000       1.78410000       0.45240000
O        2.20130000       2.01970000      -0.91720000
H       -2.13800000       1.81920000       0.01450000
H       -1.13330000       4.15910000      -0.82680000
H       -1.34400000       4.17710000       0.91190000
H        1.23030000       4.38740000      -0.41480000
H        0.98030000       4.06310000       1.30220000
H        3.27180000       2.47640000       0.87810000
H        2.67870000       0.73850000       0.72640000
