23
Properties=species:S:1:pos:R:3 gdb_116066=T pbc="F F F"
C        0.09210000       1.56890000      -0.00410000
C        0.00860000       0.03910000       0.00310000
C       -1.41920000      -0.53150000       0.01960000
C       -1.41690000      -2.05890000      -0.15920000
C       -2.83500000      -2.64230000      -0.17660000
C       -3.61300000      -2.27880000       1.10290000
C       -3.57580000      -0.77970000       1.36200000
O       -4.57120000      -0.13160000       1.59030000
C       -2.18890000      -0.15190000       1.30610000
H        1.13190000       1.90080000      -0.08310000
H       -0.45610000       1.99040000      -0.85410000
H       -0.32250000       2.00810000       0.90820000
H        0.52180000      -0.34950000      -0.88600000
H        0.55980000      -0.35650000       0.86770000
H       -1.96420000      -0.09690000      -0.83270000
H       -0.89550000      -2.31930000      -1.08760000
H       -0.84090000      -2.51640000       0.65850000
H       -3.37710000      -2.25420000      -1.04870000
H       -2.80080000      -3.73090000      -0.29150000
H       -4.65580000      -2.60170000       1.06050000
H       -3.14080000      -2.77740000       1.96180000
H       -1.61880000      -0.51880000       2.17350000
H       -2.30450000       0.92820000       1.41640000
