17
Properties=species:S:1:pos:R:3 gdb_126962=T pbc="F F F"
C       -0.06130000       1.52850000      -0.10620000
C       -0.03200000       0.01600000       0.07540000
N       -1.39100000      -0.52970000       0.02320000
C       -1.54300000      -1.88820000       0.03860000
N       -0.57320000      -2.74710000      -0.04590000
O       -1.23870000      -4.02500000      -0.09550000
C       -2.58990000      -3.85480000      -0.02090000
N       -3.50430000      -4.72740000      -0.05820000
N       -2.77770000      -2.48460000       0.11070000
H        0.95490000       1.93040000      -0.08070000
H       -0.51820000       1.80060000      -1.06190000
H       -0.62840000       2.01600000       0.69560000
H        0.53680000      -0.46250000      -0.72660000
H        0.46640000      -0.25420000       1.01700000
H       -2.06020000      -0.03440000       0.59760000
H       -3.10750000      -5.65770000      -0.16580000
H       -3.67160000      -2.04550000      -0.02390000
