22
Properties=species:S:1:pos:R:3 gdb_97054=T pbc="F F F"
C       -0.47570000       1.35330000      -0.38200000
N       -0.14150000      -0.03770000      -0.11760000
C        0.68900000      -0.62280000      -0.86250000
C        1.14840000      -2.05690000      -0.70970000
C        1.71890000      -2.38250000      -2.09490000
C        2.19010000      -1.00430000      -2.61440000
C        3.63070000      -0.68700000      -2.20150000
C        1.98670000      -0.82100000      -4.11440000
O        1.31300000      -0.05740000      -1.94310000
H       -0.27790000       1.67150000      -1.41240000
H       -1.53490000       1.51330000      -0.15680000
H        0.09590000       2.00740000       0.28910000
H        1.91980000      -2.10900000       0.06710000
H        0.32660000      -2.70010000      -0.39470000
H        2.53220000      -3.11130000      -2.07490000
H        0.93270000      -2.77410000      -2.74810000
H        4.33510000      -1.33050000      -2.73800000
H        3.86890000       0.35500000      -2.43250000
H        3.77820000      -0.83870000      -1.12800000
H        0.93590000      -0.96830000      -4.37840000
H        2.28340000       0.18430000      -4.42760000
H        2.58960000      -1.54540000      -4.67120000
