19
Properties=species:S:1:pos:R:3 gdb_31053=T pbc="F F F"
C        0.08590000       1.42450000       0.18330000
N       -0.31340000       0.07590000      -0.19270000
C        0.45790000      -0.59170000      -1.14440000
C        0.75590000      -1.92360000      -1.14110000
N        0.43070000      -2.91050000      -0.20970000
O        1.46650000      -2.24420000      -2.28850000
C        1.62880000      -1.09540000      -2.99370000
C        2.39370000      -1.18730000      -4.26570000
C        1.03270000      -0.05450000      -2.34880000
H        1.11710000       1.49850000       0.56570000
H       -0.00070000       2.09380000      -0.67850000
H       -0.59650000       1.79450000       0.95320000
H       -0.46370000      -0.52360000       0.60960000
H       -0.22640000      -3.59840000      -0.56730000
H        1.24560000      -3.40950000       0.13420000
H        1.92530000      -1.88660000      -4.96800000
H        2.44170000      -0.20560000      -4.74250000
H        3.41940000      -1.53570000      -4.09600000
H        1.00370000       0.96830000      -2.69040000
