18
Properties=species:S:1:pos:R:3 gdb_37416=T pbc="F F F"
C       -0.04540000       1.56400000       0.06100000
C        1.48360000       1.36750000      -0.00420000
O        1.75600000       0.76220000       1.26920000
C        0.87650000      -0.39920000       1.19510000
C        1.78940000      -1.49530000       0.66270000
N        1.23930000      -2.28450000      -0.45970000
C        2.07220000      -1.08090000      -0.73320000
C        1.21680000       0.13980000      -0.96590000
C       -0.01590000       0.01720000      -0.00570000
H       -0.43590000       2.05440000       0.95510000
H       -0.47340000       1.99850000      -0.84540000
H        2.20500000       2.15830000      -0.20520000
H        0.39360000      -0.56120000       2.15940000
H        2.55100000      -1.91780000       1.30810000
H        1.81910000      -3.11200000      -0.57760000
H        3.05130000      -1.19840000      -1.18390000
H        0.98990000       0.42220000      -1.99360000
H       -0.87850000      -0.60080000      -0.23460000
