19
Properties=species:S:1:pos:R:3 gdb_121099=T pbc="F F F"
N       -0.01460000       1.34000000      -0.10140000
C       -0.07430000      -0.02620000      -0.06470000
N       -1.10410000      -0.74070000       0.16650000
C       -0.68010000      -2.14000000       0.01870000
C       -1.53530000      -2.89740000      -1.00230000
C       -3.00300000      -3.00670000      -0.58670000
O       -3.77860000      -3.75480000      -1.51370000
C        0.82100000      -2.04320000      -0.38610000
O        1.11050000      -0.63060000      -0.35550000
H        0.89540000       1.73660000       0.07370000
H       -0.77760000       1.79830000       0.37110000
H       -0.77870000      -2.64510000       0.99020000
H       -1.46570000      -2.38060000      -1.97000000
H       -1.13230000      -3.90820000      -1.14560000
H       -3.08070000      -3.54600000       0.36450000
H       -3.41630000      -2.00230000      -0.42560000
H       -3.82230000      -3.24820000      -2.33070000
H        1.49850000      -2.54810000       0.30730000
H        1.01040000      -2.41080000      -1.40040000
