18
Properties=species:S:1:pos:R:3 gdb_4489=T pbc="F F F"
C        0.03390000       1.47800000       0.06290000
C        0.02240000      -0.01110000      -0.04270000
C       -0.04270000      -0.84040000      -1.14050000
C       -0.03170000      -2.18980000      -0.67360000
N       -0.11880000      -3.38120000      -1.44600000
C        0.03760000      -2.15510000       0.70360000
C        0.05760000      -3.26880000       1.69340000
N        0.08590000      -0.82140000       1.06500000
H        0.94530000       1.85490000       0.54510000
H       -0.01630000       1.92140000      -0.93440000
H       -0.81910000       1.86250000       0.63730000
H       -0.09400000      -0.51670000      -2.17050000
H       -0.37380000      -3.16780000      -2.40300000
H        0.76590000      -3.87720000      -1.47810000
H        1.05310000      -3.45440000       2.12070000
H       -0.62480000      -3.08450000       2.53280000
H       -0.26560000      -4.18830000       1.19740000
H        0.13550000      -0.49160000       2.01340000
