20
Properties=species:S:1:pos:R:3 gdb_22417=T pbc="F F F"
C       -0.00730000       1.48880000      -0.01390000
C        0.02050000      -0.01660000      -0.00980000
N        0.06190000      -0.72990000       1.05210000
O        0.07790000       0.06950000       2.20760000
C       -0.00030000      -0.75640000      -1.29570000
C        1.04230000      -0.65860000      -2.46350000
C       -0.02710000      -1.68220000      -2.93690000
C        0.02190000      -2.29510000      -1.50690000
C       -1.10600000      -0.69740000      -2.40660000
H        0.87620000       1.88750000       0.49480000
H       -0.04100000       1.88180000      -1.03140000
H       -0.87720000       1.85530000       0.54040000
H        0.10890000      -0.59060000       2.90800000
H        1.08860000       0.29060000      -3.00510000
H        2.04090000      -1.04860000      -2.24850000
H       -0.04250000      -2.22030000      -3.88450000
H        0.94230000      -2.80860000      -1.21880000
H       -0.86290000      -2.84110000      -1.17100000
H       -2.07720000      -1.12290000      -2.13940000
H       -1.21510000       0.24910000      -2.94410000
