14
Properties=species:S:1:pos:R:3 gdb_28970=T pbc="F F F"
C       -0.03850000       1.51170000      -0.02760000
C       -0.01120000       0.01060000      -0.00890000
N       -0.03100000      -0.63720000      -1.17790000
C       -0.00600000      -1.96910000      -1.14480000
C        0.03910000      -2.68120000       0.05260000
N        0.05950000      -2.06230000       1.22900000
C        0.03440000      -0.72560000       1.19390000
C        0.05630000      -0.03450000       2.45500000
N        0.07180000       0.56430000       3.44490000
H        0.84730000       1.92780000       0.46370000
H       -0.07430000       1.85920000      -1.06030000
H       -0.90890000       1.89650000       0.51420000
H       -0.02250000      -2.48560000      -2.10100000
H        0.05900000      -3.76710000       0.06370000
