15
Properties=species:S:1:pos:R:3 gdb_25838=T pbc="F F F"
C       -0.03980000       1.50510000       0.00940000
C        0.03230000      -0.00440000       0.00300000
O        1.08110000      -0.61330000      -0.00770000
C       -1.27100000      -0.76010000       0.01020000
N       -2.41490000      -0.06610000       0.02180000
C       -3.54040000      -0.77780000       0.02780000
C       -3.52810000      -2.17220000       0.02210000
N       -2.39160000      -2.87310000       0.01050000
C       -1.26570000      -2.15990000       0.00460000
H        0.97200000       1.91080000       0.00310000
H       -0.60060000       1.86300000      -0.85940000
H       -0.58700000       1.85620000       0.88970000
H       -4.47750000      -0.22720000       0.03730000
H       -4.45710000      -2.73640000       0.02710000
H       -0.32220000      -2.69490000      -0.00500000
