15
Properties=species:S:1:pos:R:3 gdb_8637=T pbc="F F F"
C       -0.00320000       1.56420000       0.12430000
C       -0.05680000       0.04360000      -0.01740000
C        0.71520000      -0.48190000      -1.26090000
O        2.07090000      -0.03550000      -1.24980000
C        0.64490000      -1.94810000      -1.31560000
C        0.62370000      -3.14870000      -1.29770000
C        0.10810000       0.07870000      -2.49310000
N       -0.40040000       0.52510000      -3.42850000
H        1.03150000       1.91220000       0.16440000
H       -0.49760000       2.05870000      -0.71690000
H       -0.50910000       1.87340000       1.04280000
H        0.39650000      -0.44520000       0.85220000
H       -1.09030000      -0.31240000      -0.08170000
H        2.57830000      -0.68130000      -0.74540000
H        0.59820000      -4.21120000      -1.30440000
