19
Properties=species:S:1:pos:R:3 gdb_114789=T pbc="F F F"
O       -0.06570000       1.48390000       0.05740000
C        0.04420000       0.06480000       0.04590000
C       -1.36780000      -0.51020000      -0.03370000
C       -2.07940000      -0.20420000      -1.38800000
C       -2.07700000      -1.55110000      -2.09720000
O       -0.67460000      -1.97330000      -2.26050000
C       -0.82370000      -2.81770000      -1.11860000
C       -2.30020000      -2.62840000      -1.01020000
C       -1.39520000      -2.03950000       0.05620000
H        0.81900000       1.85260000      -0.01720000
H        0.62460000      -0.28650000      -0.81740000
H        0.53900000      -0.29870000       0.96160000
H       -1.93970000      -0.08310000       0.79710000
H       -3.10950000       0.13450000      -1.22900000
H       -1.55670000       0.56720000      -1.95890000
H       -2.62180000      -1.62110000      -3.04010000
H       -0.18260000      -3.68830000      -1.04170000
H       -3.12790000      -3.31070000      -0.87850000
H       -1.34820000      -2.52820000       1.02380000
