18
Properties=species:S:1:pos:R:3 gdb_55898=T pbc="F F F"
C       -0.00430000       1.47480000       0.06880000
C        0.07830000      -0.03300000      -0.06320000
O        1.13400000      -0.61910000      -0.12660000
C       -1.25840000      -0.77550000      -0.12510000
C       -1.08980000      -2.26800000       0.03790000
N       -1.33660000      -2.82870000       1.35800000
C       -2.23040000      -3.22520000       0.24810000
C       -3.64020000      -2.75940000       0.36000000
O       -4.56220000      -3.26630000      -0.22830000
H        0.98600000       1.91510000      -0.05190000
H       -0.69710000       1.89610000      -0.66760000
H       -0.39770000       1.73380000       1.05900000
H       -1.93360000      -0.37070000       0.63550000
H       -1.71360000      -0.53780000      -1.09750000
H       -0.25600000      -2.67170000      -0.53040000
H       -0.68630000      -3.57980000       1.57060000
H       -2.12540000      -4.20970000      -0.20160000
H       -3.78220000      -1.89550000       1.04600000
