25
Properties=species:S:1:pos:R:3 gdb_113075=T pbc="F F F"
C       -0.24920000       1.54880000       0.20600000
C       -0.00040000       0.05080000      -0.00210000
C        0.73030000      -0.59360000       1.17000000
C        0.00330000      -0.72560000       2.54040000
C        0.72180000      -2.09110000       2.72110000
O        0.00330000      -3.18390000       3.22830000
C       -0.25400000      -3.09120000       4.61000000
C        0.98950000      -2.13980000       1.19330000
C       -0.00530000      -3.00140000       0.41720000
H        0.69370000       2.09300000       0.33200000
H       -0.77570000       1.98830000      -0.64690000
H       -0.85550000       1.72950000       1.10020000
H       -0.95760000      -0.45830000      -0.16600000
H        0.58530000      -0.09750000      -0.91930000
H        1.68490000      -0.07380000       1.31790000
H        0.16590000       0.05180000       3.29070000
H       -1.07360000      -0.87490000       2.40890000
H        1.65950000      -1.96260000       3.28580000
H        0.67840000      -3.02790000       5.19390000
H       -0.87240000      -2.21520000       4.85750000
H       -0.79290000      -3.99550000       4.90370000
H        2.00740000      -2.43580000       0.92060000
H       -1.04370000      -2.76000000       0.66130000
H        0.12860000      -2.87380000      -0.66190000
H        0.14320000      -4.05770000       0.65720000
