20
Properties=species:S:1:pos:R:3 gdb_76384=T pbc="F F F"
C       -0.15080000       1.48690000       0.08280000
C        0.07220000      -0.00800000       0.05040000
C        1.41070000      -0.60230000      -0.27440000
O        2.52940000       0.22490000      -0.42160000
C        0.87380000      -0.73750000       1.14350000
C        1.54340000       0.04590000       2.25560000
C        0.33530000      -2.11300000       1.44250000
N        0.44340000      -2.54200000       2.73390000
O       -0.16470000      -2.81490000       0.57680000
H        0.77570000       2.03590000       0.26560000
H       -0.55250000       1.82760000      -0.87820000
H       -0.87330000       1.77020000       0.85540000
H       -0.76640000      -0.59790000      -0.30700000
H        1.42450000      -1.51960000      -0.85900000
H        2.47670000       0.63970000      -1.28900000
H        2.02440000       0.94250000       1.86590000
H        0.82660000       0.35320000       3.02650000
H        2.33090000      -0.54820000       2.73290000
H        0.76010000      -1.95040000       3.47980000
H        0.03300000      -3.43260000       2.96040000
