19
Properties=species:S:1:pos:R:3 gdb_126537=T pbc="F F F"
C       -0.01120000       1.62430000       0.05140000
C        0.00070000       0.09430000       0.06200000
C       -1.40600000      -0.51430000      -0.09490000
C       -1.41720000      -2.01220000      -0.06070000
C       -1.64430000      -2.91220000      -1.08360000
N       -1.53070000      -4.15670000      -0.56390000
N       -1.23880000      -4.14590000       0.76160000
C       -1.17210000      -2.85640000       1.05180000
O       -0.89720000      -2.41910000       2.30190000
H        0.99850000       2.03200000       0.16210000
H       -0.42580000       2.01280000      -0.88600000
H       -0.62160000       2.02120000       0.87050000
H        0.64260000      -0.28120000      -0.74450000
H        0.43820000      -0.26980000       0.99860000
H       -2.04710000      -0.12410000       0.70660000
H       -1.84890000      -0.16790000      -1.03680000
H       -1.87890000      -2.75110000      -2.12480000
H       -1.64510000      -5.03880000      -1.02950000
H       -0.78190000      -3.20070000       2.85660000
