19
Properties=species:S:1:pos:R:3 gdb_67290=T pbc="F F F"
C       -0.05130000       1.48050000       0.02180000
C       -0.05750000      -0.02100000       0.02800000
C        0.78410000      -0.99510000      -0.89630000
C        1.97680000      -1.00250000       0.07870000
C        0.73320000      -0.99660000       0.98900000
C       -0.06230000      -1.94880000       0.02400000
C       -1.23660000      -0.98730000       0.00540000
C       -2.59650000      -0.98130000       0.52810000
O       -2.32400000      -0.97480000      -0.89410000
H        0.97030000       1.87480000       0.00310000
H       -0.57810000       1.86510000      -0.85780000
H       -0.54850000       1.88150000       0.91200000
H        0.77930000      -0.99610000      -1.98680000
H        2.59240000      -1.90720000       0.09490000
H        2.61140000      -0.11080000       0.09750000
H        0.67080000      -1.00080000       2.07860000
H       -0.03840000      -3.03790000       0.02430000
H       -3.04330000      -1.89980000       0.90690000
H       -3.03430000      -0.06230000       0.91650000
