19
Properties=species:S:1:pos:R:3 gdb_50753=T pbc="F F F"
O       -0.90260000       0.53650000      -0.15920000
C       -0.33450000       1.57500000       0.05350000
C        1.17320000       1.78070000      -0.03120000
C        1.45620000       2.57460000      -1.32170000
C        2.90660000       3.02160000      -1.50720000
O        3.21130000       4.16120000      -0.72860000
C        3.62920000       3.90780000       0.59070000
C        2.66100000       3.22200000       1.51900000
C        1.66410000       2.37170000       1.27080000
H       -0.89930000       2.49970000       0.31990000
H        1.60640000       0.77560000      -0.13570000
H        1.15970000       1.95220000      -2.17460000
H        0.83530000       3.47860000      -1.34950000
H        3.60790000       2.19870000      -1.29370000
H        3.05690000       3.32240000      -2.54970000
H        4.57210000       3.32700000       0.58890000
H        3.87690000       4.89090000       1.00670000
H        2.87280000       3.43310000       2.56710000
H        1.14710000       1.97540000       2.14460000
