15
Properties=species:S:1:pos:R:3 gdb_125531=T pbc="F F F"
C       -0.02160000       1.44690000       0.00730000
C       -0.00030000      -0.04060000      -0.01940000
N       -0.04790000      -0.75910000      -1.11620000
N       -0.00380000      -2.05140000      -0.65400000
C       -0.00940000      -3.34850000      -1.13080000
C        0.06310000      -4.11270000       0.01410000
N        0.11320000      -3.35210000       1.17560000
C        0.06960000      -2.13170000       0.70250000
N        0.07200000      -0.81810000       1.12020000
H        0.88170000       1.85100000       0.47720000
H       -0.07780000       1.81620000      -1.01710000
H       -0.88630000       1.82410000       0.56430000
H       -0.06150000      -3.58640000      -2.17780000
H        0.08240000      -5.19070000       0.06870000
H        0.11740000      -0.49490000       2.06990000
