19
Properties=species:S:1:pos:R:3 gdb_93107=T pbc="F F F"
C       -0.07160000       1.58020000       0.00610000
C        0.02630000       0.05600000       0.05710000
O        0.69530000      -0.42110000      -1.13200000
C        2.04940000      -0.51500000      -1.06080000
N        2.81850000      -0.39750000      -0.06580000
C        2.22290000      -0.16920000       1.24860000
C        0.73970000      -0.47910000       1.28130000
C       -0.01360000      -0.64240000       2.54510000
N        0.39370000      -1.82700000       1.76750000
H        0.91860000       2.04230000       0.04610000
H       -0.55710000       1.89260000      -0.92210000
H       -0.66000000       1.95050000       0.85070000
H       -0.97980000      -0.37500000      -0.00150000
H        2.44960000      -0.73170000      -2.04980000
H        2.73900000      -0.80350000       1.97550000
H        2.41300000       0.87170000       1.54460000
H        0.49490000      -0.52140000       3.49810000
H       -1.06400000      -0.35870000       2.55920000
H       -0.40320000      -2.19760000       1.25360000
