17
Properties=species:S:1:pos:R:3 gdb_29720=T pbc="F F F"
C       -0.02160000       1.48120000      -0.00010000
N        0.03540000       0.03520000       0.02170000
C        0.05580000      -0.81240000      -1.04180000
O        0.07350000      -0.29780000      -2.28940000
N        0.06110000      -2.07350000      -0.71600000
C        0.05960000      -2.06980000       0.67920000
N        0.03590000      -3.23120000       1.49130000
C        0.04520000      -0.78880000       1.15150000
N       -0.07110000      -0.25190000       2.44410000
H        0.97820000       1.93010000      -0.03290000
H       -0.57720000       1.80920000      -0.88030000
H       -0.53220000       1.81920000       0.90410000
H        0.07020000      -1.05590000      -2.88670000
H        0.88280000      -3.77860000       1.35710000
H       -0.73050000      -3.83790000       1.21090000
H       -0.32550000      -1.00720000       3.07310000
H        0.80600000       0.13730000       2.78280000
