16
Properties=species:S:1:pos:R:3 gdb_27346=T pbc="F F F"
C       -0.01990000       1.48570000       0.06840000
C       -0.00050000      -0.00640000      -0.04390000
C       -0.01830000      -0.71500000      -1.18550000
C        0.00380000      -2.17880000      -1.17620000
N       -0.01380000      -2.83310000      -2.27820000
N        0.04450000      -2.80540000       0.08990000
C        0.05960000      -2.07000000       1.13800000
O        0.09820000      -2.60310000       2.37240000
N        0.03990000      -0.70720000       1.16180000
H        0.87190000       1.85550000       0.58930000
H       -0.05130000       1.93980000      -0.92250000
H       -0.89520000       1.82920000       0.63330000
H       -0.04950000      -0.21750000      -2.14560000
H        0.00640000      -3.83260000      -2.06480000
H        0.10920000      -3.56160000       2.24030000
H        0.05500000      -0.23140000       2.04900000
