18
Properties=species:S:1:pos:R:3 gdb_46190=T pbc="F F F"
O       -0.09620000       0.09210000      -0.50280000
C       -0.09120000       1.23130000      -0.13000000
C       -1.17010000       2.17470000       0.42540000
C       -0.11170000       3.31780000       0.44410000
C        0.98540000       2.32870000      -0.02790000
C        2.39480000       2.14310000       0.58700000
C        2.72510000       1.44150000      -0.74770000
N        1.90830000       2.66610000      -1.22020000
C        2.73320000       3.44120000      -0.17120000
H       -2.02530000       2.31400000      -0.24090000
H       -1.54460000       1.86490000       1.40560000
H       -0.30750000       4.10620000      -0.28570000
H        0.06260000       3.77220000       1.42150000
H        2.64530000       1.84800000       1.61170000
H        3.76400000       1.47260000      -1.08630000
H        2.24750000       0.48770000      -0.96630000
H        2.26900000       4.37530000       0.15270000
H        3.77180000       3.59760000      -0.47600000
