15
Properties=species:S:1:pos:R:3 gdb_11714=T pbc="F F F"
O       -0.11100000       1.43980000      -0.09240000
C       -0.02020000       0.04130000       0.03370000
C        0.26520000      -0.56610000       1.45490000
C       -1.09130000      -1.28690000       1.38160000
C       -2.19490000      -0.27000000       1.19750000
C       -1.38000000      -0.64740000       0.00140000
C       -1.33500000      -2.62490000       1.80590000
N       -1.51490000      -3.71460000       2.15390000
H        0.77900000       1.80650000      -0.08210000
H        0.66070000      -0.38630000      -0.71240000
H        1.11980000      -1.24410000       1.46520000
H        0.35820000       0.15780000       2.26920000
H       -3.20140000      -0.67220000       1.21550000
H       -2.08180000       0.71080000       1.64870000
H       -1.82400000      -1.11970000      -0.86520000
