16
Properties=species:S:1:pos:R:3 gdb_5899=T pbc="F F F"
C       -0.00390000       1.48680000      -0.01180000
C       -0.00270000       0.03150000      -0.00150000
C       -0.00250000      -1.17230000       0.01020000
C        0.00910000      -2.64570000      -0.00650000
C       -1.42330000      -3.20620000       0.05210000
O        0.55560000      -3.13500000      -1.23650000
C        0.80170000      -3.14210000       1.13600000
C        1.45880000      -3.56330000       2.04970000
H        0.72730000       1.89000000       0.69710000
H        0.24570000       1.87470000      -1.00550000
H       -0.98770000       1.88360000       0.26120000
H       -1.98300000      -2.83810000      -0.81040000
H       -1.38220000      -4.29710000       0.01930000
H       -1.91900000      -2.88800000       0.97070000
H        1.44810000      -2.77920000      -1.31520000
H        2.03960000      -3.93150000       2.85910000
