14
Properties=species:S:1:pos:R:3 gdb_31373=T pbc="F F F"
C       -0.06790000       1.45020000       0.00960000
O       -0.03120000       0.01720000       0.00460000
C       -1.17080000      -0.66360000       0.01190000
C       -1.23520000      -2.01080000       0.00910000
C       -2.52580000      -2.67950000       0.01740000
O       -2.68310000      -3.87870000       0.01570000
N       -3.66980000      -1.80390000       0.02840000
C       -3.48840000      -0.55720000       0.03000000
O       -2.28460000       0.10890000       0.02230000
H        0.97670000       1.75950000       0.00230000
H       -0.57740000       1.83440000      -0.87800000
H       -0.56330000       1.82850000       0.90760000
H       -0.32590000      -2.59460000       0.00080000
H       -4.29780000       0.16690000       0.03800000
