17
Properties=species:S:1:pos:R:3 gdb_50363=T pbc="F F F"
O       -0.45220000       0.32300000       0.18970000
C        0.50210000       0.74420000      -0.40480000
C        1.35510000       1.92010000       0.08830000
O        2.68950000       1.49630000       0.27300000
C        3.50580000       2.03400000      -0.75610000
C        3.66820000       1.17200000      -2.04040000
C        2.74900000       2.16550000      -2.81630000
C        2.59390000       3.02010000      -1.52630000
O        1.33730000       2.95790000      -0.86900000
H        0.84280000       0.30620000      -1.37020000
H        0.94360000       2.28190000       1.03870000
H        4.42480000       2.40760000      -0.30010000
H        4.69450000       1.12050000      -2.41010000
H        3.28860000       0.15460000      -1.92870000
H        3.24040000       2.69120000      -3.63780000
H        1.80370000       1.75910000      -3.18090000
H        2.88810000       4.06920000      -1.59760000
