19
Properties=species:S:1:pos:R:3 gdb_12266=T pbc="F F F"
C        0.14350000       1.48480000       0.18150000
C       -0.04180000      -0.02630000       0.02210000
C        0.57500000      -0.55970000      -1.26640000
N        2.06690000      -0.54430000      -1.33350000
C        2.14930000      -1.96430000      -1.78780000
C        3.12740000      -2.85620000      -1.03840000
C        0.65070000      -2.08420000      -1.45680000
O       -0.11630000      -2.99170000      -1.32880000
H        1.20710000       1.74390000       0.18220000
H       -0.33810000       2.03370000      -0.63590000
H       -0.28910000       1.83920000       1.12190000
H        0.41670000      -0.54840000       0.86950000
H       -1.10700000      -0.28700000       0.02350000
H        0.08850000      -0.09220000      -2.13830000
H        2.44470000       0.12170000      -1.99700000
H        2.29450000      -2.07010000      -2.87480000
H        2.98730000      -2.75530000       0.04100000
H        2.97110000      -3.90310000      -1.31710000
H        4.16130000      -2.58700000      -1.27560000
