19
Properties=species:S:1:pos:R:3 gdb_110781=T pbc="F F F"
C        0.30140000       1.25420000       0.11150000
O       -0.32270000       0.09660000      -0.41220000
C        0.46410000      -0.57380000      -1.34540000
C        1.43000000      -1.64420000      -0.88850000
C        1.31960000      -2.10200000       0.55160000
C       -0.13790000      -2.55340000       0.74650000
O       -0.65710000      -2.78860000       1.80450000
C       -0.81330000      -2.67730000      -0.62850000
C        0.12310000      -2.00630000      -1.61250000
H        1.25670000       1.01740000       0.59980000
H        0.49090000       1.99600000      -0.67860000
H       -0.38280000       1.68330000       0.84640000
H        0.76900000       0.03790000      -2.19600000
H        2.38360000      -1.73210000      -1.39640000
H        1.97070000      -2.96570000       0.73580000
H        1.57210000      -1.34820000       1.30260000
H       -0.93250000      -3.74270000      -0.86070000
H       -1.81280000      -2.23760000      -0.58320000
H        0.13670000      -2.35140000      -2.63960000
