21
Properties=species:S:1:pos:R:3 gdb_58908=T pbc="F F F"
C       -0.06360000       1.51140000      -0.05430000
C        0.02530000      -0.01880000       0.05490000
C        0.90300000      -0.46050000       1.23360000
C       -1.35360000      -0.62010000       0.13180000
C       -2.37260000      -0.40020000       1.29230000
C       -3.06570000      -1.64850000       0.75130000
C       -2.84710000      -1.57350000      -0.76890000
O       -2.17410000      -0.35220000      -1.05660000
C       -1.78070000      -2.14590000       0.09370000
H        0.93010000       1.94510000      -0.20390000
H       -0.69890000       1.80520000      -0.89360000
H       -0.48360000       1.94680000       0.85940000
H        0.47400000      -0.40140000      -0.87170000
H        0.96000000      -1.55130000       1.30770000
H        1.92120000      -0.07830000       1.11320000
H        0.51670000      -0.07810000       2.18460000
H       -1.92560000      -0.58760000       2.27170000
H       -2.91240000       0.55200000       1.28910000
H       -3.85510000      -2.23660000       1.20150000
H       -3.49780000      -2.00830000      -1.51590000
H       -1.24980000      -3.08750000       0.11600000
