16
Properties=species:S:1:pos:R:3 gdb_15316=T pbc="F F F"
O       -0.55800000       0.88490000       0.89410000
C       -0.07720000       1.15430000      -0.17440000
C        1.34560000       1.63840000      -0.38510000
C        1.37320000       2.88590000      -1.25260000
C        1.31080000       4.25340000      -0.65960000
C        2.59250000       3.80210000      -1.35370000
C        3.80440000       3.57200000      -0.53380000
O        4.93030000       3.76000000      -0.92330000
H       -0.67190000       1.05680000      -1.11340000
H        1.79800000       1.79320000       0.59690000
H        1.89590000       0.82800000      -0.88570000
H        0.86390000       2.76040000      -2.20530000
H        0.72810000       5.02600000      -1.14710000
H        1.34680000       4.33300000       0.42300000
H        2.80790000       4.21270000      -2.33410000
H        3.61050000       3.22000000       0.50540000
