14
Properties=species:S:1:pos:R:3 gdb_14639=T pbc="F F F"
C        0.06670000       1.52260000      -0.02430000
C        0.03040000       0.06890000       0.03840000
C       -0.00130000      -1.13190000       0.08990000
C       -0.03250000      -2.59350000       0.15350000
C       -1.37330000      -3.16620000       0.04560000
C       -2.47000000      -3.66210000      -0.04140000
C       -3.79790000      -4.20900000      -0.14920000
O       -4.05880000      -5.38980000      -0.12150000
H        0.67100000       1.86880000      -0.86970000
H       -0.94020000       1.93680000      -0.14360000
H        0.49560000       1.94900000       0.88890000
H        0.59360000      -3.02030000      -0.64320000
H        0.42010000      -2.94110000       1.09330000
H       -4.59260000      -3.44380000      -0.26350000
