18
Properties=species:S:1:pos:R:3 gdb_11904=T pbc="F F F"
C        0.23890000       1.52610000      -0.15880000
C       -0.03650000       0.04190000       0.08280000
O        0.40110000      -0.72590000      -1.04980000
C        1.29040000      -1.73960000      -0.62840000
C        1.21220000      -3.08050000      -1.31570000
C        2.38380000      -2.15350000      -1.57720000
C        1.46680000      -1.56600000       0.82890000
C        0.70930000      -0.55770000       1.24900000
H        1.31350000       1.70440000      -0.25740000
H       -0.25640000       1.85590000      -1.07640000
H       -0.14270000       2.12790000       0.67300000
H       -1.12460000      -0.09920000       0.19940000
H        1.37390000      -3.97900000      -0.72920000
H        0.46660000      -3.17200000      -2.09760000
H        2.40720000      -1.63820000      -2.53090000
H        3.35720000      -2.40940000      -1.17180000
H        2.11910000      -2.19300000       1.42310000
H        0.61260000      -0.18950000       2.26230000
