19
Properties=species:S:1:pos:R:3 gdb_22442=T pbc="F F F"
C        0.41510000       1.76990000       0.03470000
C        0.56710000       0.25970000       0.20120000
C        0.60970000      -0.53600000      -1.08390000
N        0.51920000       0.13840000      -2.16820000
O        0.57380000      -0.61040000      -3.35410000
C        0.77000000      -2.03740000      -0.86530000
O        0.96310000      -2.44190000       0.27240000
N        0.66770000      -2.85210000      -1.94440000
C        0.79140000      -4.29190000      -1.83160000
H        1.24340000       2.19400000      -0.53930000
H       -0.50900000       2.02420000      -0.49140000
H        0.39520000       2.25080000       1.01690000
H        1.47490000       0.01550000       0.76450000
H       -0.24590000      -0.14880000       0.81370000
H        0.47380000       0.06880000      -4.02880000
H        0.53600000      -2.42490000      -2.84690000
H        1.68350000      -4.65740000      -2.35360000
H        0.87370000      -4.54040000      -0.77360000
H       -0.08680000      -4.79230000      -2.25380000
