18
Properties=species:S:1:pos:R:3 gdb_18372=T pbc="F F F"
O       -0.02660000       1.45730000       0.12810000
C        0.01620000       0.04290000       0.06670000
C        0.54050000      -0.62850000       1.35610000
O       -0.03500000      -1.92340000       1.37520000
C       -1.34540000      -1.81750000       0.83410000
C       -2.42500000      -1.19440000       1.76730000
C       -2.48510000       0.06600000       0.85630000
C       -1.39380000      -0.54720000      -0.06960000
H        0.87730000       1.78550000       0.15670000
H        0.62520000      -0.28940000      -0.78660000
H        1.62830000      -0.74430000       1.38680000
H        0.23110000      -0.02190000       2.22280000
H       -1.59540000      -2.78620000       0.39690000
H       -3.35320000      -1.76830000       1.82230000
H       -2.06600000      -1.02500000       2.78570000
H       -3.44500000       0.21270000       0.35740000
H       -2.19630000       1.00780000       1.32520000
H       -1.68460000      -0.68250000      -1.11160000
