21
Properties=species:S:1:pos:R:3 gdb_75275=T pbc="F F F"
C        0.00070000       1.50920000       0.05660000
C        0.01460000       0.01320000      -0.00620000
C        0.02590000      -0.75250000      -1.10510000
C        0.05440000      -2.23300000      -0.78940000
C        0.00310000      -2.27790000       0.73880000
C       -0.00030000      -0.82720000       1.22910000
C       -1.19650000      -1.75080000       1.46800000
C       -2.55300000      -1.54600000       0.83810000
O       -1.25920000      -2.28330000       2.77110000
H        0.85480000       1.88760000       0.63250000
H        0.04120000       1.95590000      -0.94060000
H       -0.90110000       1.87900000       0.56090000
H       -0.00600000      -0.37410000      -2.12150000
H       -0.78320000      -2.77260000      -1.25240000
H        0.96780000      -2.71050000      -1.16890000
H        0.57270000      -3.03190000       1.26870000
H        0.55400000      -0.51890000       2.11050000
H       -2.47970000      -1.10210000      -0.15590000
H       -3.08120000      -2.50200000       0.76000000
H       -3.16420000      -0.87710000       1.45770000
H       -1.70780000      -1.63740000       3.32860000
