23
Properties=species:S:1:pos:R:3 gdb_115936=T pbc="F F F"
O        0.03200000       1.42370000      -0.02810000
C        0.04170000       0.00240000      -0.02420000
C       -1.40080000      -0.49340000      -0.01410000
C       -2.16860000      -0.07100000      -1.27470000
C       -3.66260000      -0.39750000      -1.14000000
C       -3.92860000      -1.83030000      -0.71090000
C       -3.29790000      -2.99450000      -1.42910000
C       -2.83280000      -2.63190000      -0.03640000
C       -1.44650000      -2.02090000       0.17610000
H        0.94080000       1.73110000      -0.08920000
H        0.55970000      -0.39350000      -0.91420000
H        0.57150000      -0.38560000       0.86130000
H       -1.89330000      -0.02110000       0.84820000
H       -2.03520000       1.00090000      -1.44240000
H       -1.73940000      -0.58050000      -2.14930000
H       -4.09500000       0.27600000      -0.38780000
H       -4.18480000      -0.18220000      -2.08090000
H       -4.93670000      -2.00170000      -0.34280000
H       -3.88450000      -3.89720000      -1.56320000
H       -2.61880000      -2.78600000      -2.25060000
H       -3.15340000      -3.30580000       0.75200000
H       -0.72810000      -2.48780000      -0.51260000
H       -1.09600000      -2.26640000       1.18500000
