17
Properties=species:S:1:pos:R:3 gdb_16167=T pbc="F F F"
O        0.64060000       0.01100000       0.82990000
C       -0.10560000       0.31980000      -0.34280000
C       -1.48100000      -0.31320000      -0.33160000
N       -2.20800000      -0.48600000       0.95790000
C       -1.77210000      -1.67670000       0.18450000
C       -2.86820000      -2.29400000      -0.67720000
C       -3.19300000      -1.18310000      -1.65750000
C       -2.41920000      -0.11020000      -1.48070000
H        0.56390000       0.74970000       1.43890000
H       -0.19680000       1.40770000      -0.47560000
H        0.46320000      -0.06030000      -1.20040000
H       -1.51590000      -0.37190000       1.69990000
H       -0.98910000      -2.29470000       0.60930000
H       -2.51910000      -3.19990000      -1.19000000
H       -3.74260000      -2.58100000      -0.08050000
H       -3.99340000      -1.26420000      -2.38480000
H       -2.46900000       0.80980000      -2.05220000
