18
Properties=species:S:1:pos:R:3 gdb_73968=T pbc="F F F"
C       -0.10520000       1.31440000      -0.32070000
C       -0.04110000      -0.03860000       0.30410000
C       -1.06360000      -0.92430000       0.37570000
C       -1.61940000      -1.56160000      -0.88220000
C       -1.34040000      -2.96490000      -0.44070000
C       -0.24300000      -2.36170000      -1.26220000
N        0.71530000      -2.25980000      -0.12550000
C        1.23080000      -0.89650000       0.27150000
C       -0.51780000      -2.34660000       0.71830000
H        0.52110000       1.36210000      -1.22290000
H       -1.13170000       1.58280000      -0.58750000
H        0.27360000       2.09350000       0.35460000
H       -2.26500000      -1.20190000      -1.67320000
H       -1.88870000      -3.89200000      -0.52930000
H        0.05740000      -2.53390000      -2.28800000
H        1.94160000      -0.48330000      -0.45320000
H        1.77080000      -1.03800000       1.21600000
H       -0.42950000      -2.71390000       1.74060000
