15
Properties=species:S:1:pos:R:3 gdb_45847=T pbc="F F F"
O       -0.19200000       0.09140000      -0.73370000
C       -0.15510000       1.21030000      -0.28000000
C       -1.34330000       1.90400000       0.36440000
C       -1.62990000       3.25170000      -0.23780000
C       -0.75950000       4.25780000      -0.17590000
N        0.52280000       4.15590000       0.37620000
C        1.46050000       3.14940000       0.23830000
O        2.62570000       3.33170000       0.52450000
N        1.04470000       1.92580000      -0.29860000
H       -2.19100000       1.22630000       0.27140000
H       -1.11470000       2.01850000       1.43430000
H       -2.57440000       3.40630000      -0.74440000
H       -1.00030000       5.24510000      -0.55660000
H        0.97260000       5.01020000       0.67110000
H        1.83800000       1.34970000      -0.55160000
