19
Properties=species:S:1:pos:R:3 gdb_12668=T pbc="F F F"
C        0.43360000       1.58570000      -0.12700000
C       -0.01340000       0.12840000       0.04860000
C        0.37580000      -0.78200000      -1.14560000
C        1.66300000      -1.48650000      -0.69200000
C        1.60280000      -1.44070000       0.83460000
O        2.28710000      -2.07220000       1.61430000
N        0.63560000      -0.53050000       1.17700000
C        0.34430000      -0.20350000       2.55300000
H        1.50780000       1.64440000      -0.33200000
H       -0.10200000       2.04700000      -0.96290000
H        0.22690000       2.17920000       0.76870000
H       -1.10040000       0.11560000       0.20470000
H       -0.41400000      -1.51900000      -1.31690000
H        0.49530000      -0.20720000      -2.06670000
H        1.75450000      -2.51830000      -1.03560000
H        2.56780000      -0.95850000      -1.01320000
H        0.93280000      -0.87670000       3.17900000
H        0.61420000       0.83160000       2.79600000
H       -0.72210000      -0.34080000       2.77050000
