21
Properties=species:S:1:pos:R:3 gdb_120198=T pbc="F F F"
C       -0.87880000       1.50660000       1.09410000
C       -0.43800000       0.10480000       0.71050000
O       -0.11680000      -0.60240000       1.89640000
C        0.23420000      -1.92590000       1.68030000
C        1.72110000      -2.28910000       1.35200000
O        2.08740000      -1.83890000       2.71210000
C        0.86100000      -2.64990000       2.88990000
C        1.48890000      -3.71230000       1.93820000
C        0.71020000      -4.81770000       1.24090000
H       -0.07800000       2.02540000       1.62800000
H       -1.13400000       2.08390000       0.20040000
H       -1.75590000       1.46730000       1.74620000
H       -1.24020000      -0.41940000       0.16360000
H        0.43690000       0.14420000       0.04220000
H       -0.54060000      -2.45710000       1.11240000
H        2.36210000      -1.97380000       0.52760000
H        0.47080000      -2.75840000       3.90250000
H        2.41900000      -4.08600000       2.37250000
H       -0.22690000      -4.48170000       0.79110000
H        1.31830000      -5.26250000       0.44570000
H        0.46930000      -5.61610000       1.95090000
