17
Properties=species:S:1:pos:R:3 gdb_55501=T pbc="F F F"
C       -0.04090000       1.52010000      -0.04660000
C        0.16380000       0.02910000       0.02840000
N        1.32440000      -0.48040000       0.07930000
N       -1.05660000      -0.68440000       0.03400000
C       -1.22190000      -2.03100000       0.08990000
O       -0.33560000      -2.86960000       0.14770000
C       -2.69410000      -2.44670000       0.07020000
N       -2.82710000      -3.79000000       0.16910000
N       -3.57910000      -1.52460000      -0.02160000
H        0.93140000       2.01060000      -0.04590000
H       -0.58440000       1.79550000      -0.95780000
H       -0.62780000       1.87840000       0.80690000
H        1.27010000      -1.49860000       0.12570000
H       -1.93730000      -0.18120000      -0.01490000
H       -1.97940000      -4.33620000       0.16460000
H       -3.71880000      -4.24180000       0.07520000
H       -4.53200000      -1.88780000      -0.02810000
