14
Properties=species:S:1:pos:R:3 gdb_19576=T pbc="F F F"
O        0.00490000      -0.00120000       0.08420000
C       -0.01420000       1.18090000      -0.04970000
C       -1.08810000       2.29160000       0.01950000
C       -0.02660000       2.97760000       0.96600000
C        1.02840000       2.32260000      -0.00920000
C        0.67530000       3.05900000      -1.31510000
O       -0.06010000       2.26800000      -2.26590000
C       -0.79230000       3.03750000      -1.29520000
H       -2.11870000       2.10730000       0.31190000
H       -0.04240000       4.06940000       0.98250000
H       -0.00700000       2.57200000       1.97980000
H        2.07150000       2.16850000       0.25510000
H        1.29330000       3.85170000      -1.72170000
H       -1.44390000       3.81160000      -1.68460000
