19
Properties=species:S:1:pos:R:3 gdb_72710=T pbc="F F F"
C       -0.09650000       1.54200000      -0.07610000
C        0.01740000       0.03190000       0.06930000
O       -1.22820000      -0.40530000       0.75640000
C       -0.43870000      -0.45960000       2.00820000
C        0.81190000      -0.69470000       1.12900000
C        2.10450000      -0.21380000       0.34670000
C        1.13420000      -0.59570000      -0.90460000
C        0.97800000      -2.08460000      -0.68280000
C        0.75240000      -2.15590000       0.62680000
H        0.76070000       1.99420000      -0.58040000
H       -0.98270000       1.73320000      -0.69180000
H       -0.25310000       2.05110000       0.87970000
H       -0.49950000       0.49070000       2.54870000
H       -0.76010000      -1.28540000       2.64860000
H        2.34700000       0.84660000       0.43460000
H        2.99970000      -0.83210000       0.43680000
H        1.32850000      -0.20620000      -1.90580000
H        1.02310000      -2.85800000      -1.43540000
H        0.56090000      -3.00600000       1.26740000
