16
Properties=species:S:1:pos:R:3 gdb_26769=T pbc="F F F"
C        0.14460000       1.44140000       0.05370000
C       -0.05920000      -0.02950000       0.02030000
C       -1.17640000      -0.82390000      -0.01520000
N       -2.52280000      -0.42910000       0.02810000
C       -0.70830000      -2.17330000      -0.01310000
C        0.65860000      -2.11440000       0.02360000
O        1.06330000      -0.81050000       0.05120000
C        1.64400000      -3.11540000       0.03690000
C        2.48020000      -3.98330000       0.04770000
H        0.92610000       1.74570000      -0.65070000
H       -0.77730000       1.96170000      -0.22310000
H        0.43940000       1.80060000       1.04790000
H       -2.65730000       0.54140000      -0.22530000
H       -3.11390000      -1.00640000      -0.55670000
H       -1.30410000      -3.07250000      -0.03100000
H        3.21710000      -4.74740000       0.05840000
