27
Properties=species:S:1:pos:R:3 gdb_118467=T pbc="F F F"
C        0.25400000       1.78910000      -0.38180000
C        0.22430000       0.28060000      -0.11940000
C        0.95750000      -0.51530000      -1.20830000
C        0.89110000      -2.05410000      -1.10450000
C        1.37390000      -2.68770000      -2.42980000
C        1.14740000      -4.19780000      -2.56990000
C        1.60890000      -2.65920000       0.12880000
C        3.07540000      -2.26840000       0.28310000
O        0.97590000      -2.29460000       1.35790000
H        1.28270000       2.16670000      -0.40750000
H       -0.21040000       2.03730000      -1.34330000
H       -0.28070000       2.34070000       0.39810000
H        0.65650000       0.05900000       0.85950000
H       -0.82040000      -0.05840000      -0.07210000
H        0.53230000      -0.23220000      -2.18130000
H        2.00740000      -0.19540000      -1.24810000
H       -0.17200000      -2.33060000      -0.99470000
H        0.84760000      -2.18200000      -3.24840000
H        2.43730000      -2.45950000      -2.57950000
H        1.76350000      -4.78180000      -1.87990000
H        0.09980000      -4.45970000      -2.38180000
H        1.39300000      -4.53090000      -3.58330000
H        1.56360000      -3.75430000       0.02710000
H        3.18440000      -1.19250000       0.44390000
H        3.49980000      -2.78010000       1.15100000
H        3.65670000      -2.55020000      -0.59910000
H        0.03830000      -2.49810000       1.27950000
