17
Properties=species:S:1:pos:R:3 gdb_113531=T pbc="F F F"
O        0.01010000       1.33670000      -0.56640000
C        0.01310000       0.17130000       0.23740000
C       -1.35300000      -0.46300000       0.29240000
O       -1.74160000      -1.17490000      -0.90470000
C       -1.54920000      -1.91280000       0.27940000
C       -0.57440000      -3.09670000       0.45140000
N       -1.72070000      -3.83520000       1.01800000
C       -2.60260000      -2.74930000       0.97940000
N       -3.77530000      -2.49040000       1.36810000
H       -0.30380000       1.07490000      -1.43950000
H        0.74690000      -0.56720000      -0.12020000
H        0.31600000       0.49030000       1.24080000
H       -2.15120000       0.14960000       0.71100000
H       -0.18910000      -3.52210000      -0.47940000
H        0.24980000      -2.91720000       1.15080000
H       -1.67220000      -4.53400000       1.74470000
H       -4.20560000      -3.28050000       1.85100000
