16
Properties=species:S:1:pos:R:3 gdb_23554=T pbc="F F F"
O        0.08100000       1.36660000       0.23990000
C        0.04810000      -0.00190000      -0.12010000
C       -1.37200000      -0.55340000      -0.02380000
C       -1.60860000      -2.08470000      -0.07970000
O       -0.91110000      -2.66940000       1.01720000
C       -2.21590000      -2.10290000       1.27250000
C       -1.98650000      -0.61930000       1.37900000
N       -2.19040000       0.31580000       2.20730000
O       -2.82810000      -0.14250000       3.36920000
H       -0.32190000       1.44300000       1.11430000
H        0.41150000      -0.06130000      -1.15190000
H        0.71370000      -0.61000000       0.50850000
H       -2.03870000      -0.01350000      -0.70540000
H       -1.81830000      -2.71030000      -0.93830000
H       -2.96360000      -2.74040000       1.72320000
H       -2.93990000       0.66810000       3.87810000
