19
Properties=species:S:1:pos:R:3 gdb_37044=T pbc="F F F"
C       -0.01180000       1.44960000       0.12710000
C        1.31950000       0.75980000      -0.07360000
C        1.80580000       0.10820000       1.22260000
C        0.48760000      -0.76020000       1.24100000
C        0.06120000      -0.05600000      -0.05170000
O       -0.44030000      -0.65380000      -1.20130000
C        0.63320000      -0.85430000      -2.12910000
C        1.44080000       0.42410000      -2.37590000
O        2.11320000       0.90240000      -1.20430000
H       -0.27560000       1.89220000       1.08490000
H       -0.40260000       1.96970000      -0.74000000
H        2.69570000      -0.50400000       1.06430000
H        1.97460000       0.77870000       2.07020000
H        0.69900000      -1.82140000       1.09280000
H       -0.17800000      -0.64610000       2.10200000
H        1.30440000      -1.64920000      -1.76980000
H        0.17580000      -1.18330000      -3.06630000
H        2.22120000       0.23150000      -3.11780000
H        0.77320000       1.20260000      -2.77530000
