16
Properties=species:S:1:pos:R:3 gdb_55591=T pbc="F F F"
C       -0.24060000       1.47440000       0.30860000
C        0.14150000       0.06710000      -0.12160000
O        1.24630000      -0.25390000      -0.46720000
N       -0.94990000      -0.82540000      -0.07090000
C       -0.95440000      -2.18290000      -0.39260000
O        0.00890000      -2.80820000      -0.75610000
C       -2.31880000      -2.85350000      -0.22110000
C       -2.19980000      -4.07660000       0.68220000
O       -3.01070000      -4.36090000       1.52190000
H        0.64120000       2.10980000       0.23940000
H       -1.03060000       1.87860000      -0.33360000
H       -0.61170000       1.47990000       1.33920000
H       -1.82940000      -0.43610000       0.23200000
H       -3.11250000      -2.20450000       0.15620000
H       -2.60900000      -3.21830000      -1.21510000
H       -1.29520000      -4.68800000       0.49120000
