19
Properties=species:S:1:pos:R:3 gdb_51665=T pbc="F F F"
O       -0.15240000       0.03600000      -0.03530000
C       -0.00500000       1.23030000       0.01090000
C        1.32680000       1.94100000      -0.07770000
C        1.36790000       2.91150000      -1.26380000
C        0.50940000       4.22270000      -1.20610000
C        1.78280000       5.05300000      -1.48250000
O        2.41550000       5.51480000      -0.27210000
C        3.31960000       4.38470000      -0.25980000
C        2.65380000       3.76330000      -1.49840000
H       -0.88350000       1.90870000       0.11560000
H        1.46820000       2.49830000       0.85890000
H        2.11550000       1.18570000      -0.15330000
H        1.14250000       2.35410000      -2.17830000
H       -0.26320000       4.28590000      -1.97650000
H        0.06460000       4.45970000      -0.23610000
H        1.75920000       5.81880000      -2.26180000
H        4.35580000       4.70440000      -0.42790000
H        3.27660000       3.82250000       0.68090000
H        3.30690000       3.45830000      -2.31500000
