16
Properties=species:S:1:pos:R:3 gdb_26454=T pbc="F F F"
C       -0.01690000       1.44340000      -0.02980000
N       -0.01140000      -0.01170000       0.02540000
C       -0.01960000      -0.63120000       1.25100000
O       -0.03120000      -0.05530000       2.31710000
C        0.00170000      -0.71800000      -1.18230000
C        0.00960000      -0.16000000      -2.42950000
O        0.02180000      -1.13640000      -3.38230000
C        0.02160000      -2.32160000      -2.73370000
C        0.00970000      -2.14460000      -1.38830000
H        0.87620000       1.80890000      -0.54830000
H       -0.90510000       1.80180000      -0.56160000
H       -0.02600000       1.81240000       0.99430000
H       -0.01450000      -1.72960000       1.16770000
H        0.00790000       0.85250000      -2.79060000
H        0.03080000      -3.20140000      -3.35570000
H        0.00710000      -2.92960000      -0.65120000
