18
Properties=species:S:1:pos:R:3 gdb_12865=T pbc="F F F"
C       -0.02940000       1.52120000       0.01090000
C       -0.00830000       0.01240000       0.03620000
C       -1.30790000      -0.74950000      -0.26080000
C       -1.25740000      -1.95860000       0.64880000
C       -0.16830000      -1.95160000       1.42710000
C        0.71880000      -0.79450000       1.13220000
C        1.25390000      -0.73970000      -0.29320000
O        1.28210000      -1.84580000      -1.13810000
H        0.95170000       1.93700000       0.26280000
H       -0.30070000       1.89720000      -0.98290000
H       -0.75440000       1.92390000       0.72830000
H       -2.19250000      -0.13090000      -0.05810000
H       -1.36510000      -1.03810000      -1.31930000
H       -2.02310000      -2.72660000       0.64490000
H        0.07880000      -2.70700000       2.16490000
H        1.28980000      -0.32450000       1.92660000
H        2.14610000      -0.13700000      -0.43920000
H        0.70150000      -2.51730000      -0.75530000
