21
Properties=species:S:1:pos:R:3 gdb_106709=T pbc="F F F"
C        0.21540000       1.47900000       0.22370000
C       -0.15510000       0.02690000      -0.10800000
C        0.53610000      -0.47930000      -1.34070000
N        1.93530000      -0.92560000      -1.26360000
C        0.93440000      -1.88390000      -1.75240000
C        0.74670000      -3.19750000      -1.05700000
C        0.54140000      -1.55980000      -3.18500000
N       -0.89350000      -1.16700000      -3.16650000
C        0.15240000      -0.18070000      -2.78260000
H        1.29280000       1.57350000       0.39140000
H       -0.05960000       2.15690000      -0.59190000
H       -0.30030000       1.82040000       1.12630000
H        0.11000000      -0.61920000       0.73580000
H       -1.23780000      -0.06350000      -0.25570000
H        2.50570000      -0.54550000      -2.01680000
H        0.86970000      -3.08470000       0.02320000
H       -0.25260000      -3.59480000      -1.25980000
H        1.48380000      -3.93340000      -1.39950000
H        1.01510000      -1.89340000      -4.10180000
H       -1.16480000      -0.96240000      -4.13090000
H        0.27160000       0.74570000      -3.33330000
