21
Properties=species:S:1:pos:R:3 gdb_82176=T pbc="F F F"
C       -0.05700000       1.57890000       0.00660000
C        0.02000000       0.05430000      -0.02840000
C        0.72540000      -0.51760000      -1.26020000
N        0.60810000      -1.97230000      -1.47040000
C        1.81810000      -1.43330000      -0.82370000
C        3.12370000      -1.65370000      -1.54490000
C        1.78550000      -1.41680000       0.68220000
C        2.11110000      -0.11990000       1.32280000
N        0.70590000      -0.52750000       1.16220000
H        0.92560000       2.04520000      -0.11320000
H       -0.69930000       1.94300000      -0.80130000
H       -0.48020000       1.91440000       0.95750000
H       -1.00830000      -0.33180000       0.00630000
H        0.78320000       0.07770000      -2.16750000
H       -0.02500000      -2.37310000      -0.77910000
H        2.97080000      -1.61690000      -2.62600000
H        3.86520000      -0.89800000      -1.26490000
H        3.53970000      -2.63790000      -1.30070000
H        1.92420000      -2.35260000       1.22030000
H        2.45400000      -0.08710000       2.35270000
H        2.51180000       0.66520000       0.68640000
