20
Properties=species:S:1:pos:R:3 gdb_111165=T pbc="F F F"
O       -0.12480000       1.46910000      -0.20250000
C        0.03370000       0.08340000       0.08510000
C       -1.34050000      -0.54680000      -0.01070000
C       -2.02590000      -0.79830000      -1.39780000
C       -1.07410000      -2.02250000      -1.59850000
C       -1.52580000      -2.09830000      -0.10410000
C       -2.93580000      -1.77660000      -0.63450000
C       -4.27650000      -1.67800000      -0.04860000
N       -3.94680000      -2.70080000      -1.09330000
H        0.73040000       1.89620000      -0.09730000
H        0.75280000      -0.38020000      -0.60350000
H        0.42030000      -0.06640000       1.10670000
H       -1.99970000      -0.06070000       0.71610000
H       -2.31800000      -0.04820000      -2.13360000
H       -1.44480000      -2.81920000      -2.24670000
H       -0.02320000      -1.81310000      -1.79830000
H       -1.25200000      -2.84800000       0.63880000
H       -4.49330000      -2.09390000       0.93180000
H       -4.90850000      -0.83980000      -0.33260000
H       -4.32560000      -2.40690000      -1.99130000
