20
Properties=species:S:1:pos:R:3 gdb_121768=T pbc="F F F"
C       -0.08840000       1.51580000       0.05090000
C       -0.05640000      -0.00980000      -0.06610000
C        0.79970000      -0.48210000      -1.23980000
N        0.80280000      -1.93470000      -1.32310000
C        1.40470000      -2.57880000      -2.37350000
N        1.85580000      -1.95990000      -3.39210000
C        2.40560000      -2.67980000      -4.51910000
C        1.43700000      -4.03100000      -2.20940000
N        1.48370000      -5.18000000      -2.08770000
H        0.91780000       1.92460000       0.19250000
H       -0.50890000       1.97290000      -0.85090000
H       -0.69940000       1.83150000       0.90110000
H        0.33540000      -0.43990000       0.86620000
H       -1.07400000      -0.40030000      -0.18610000
H        0.41050000      -0.09310000      -2.18600000
H        1.82610000      -0.09480000      -1.14970000
H        0.73210000      -2.44890000      -0.45910000
H        2.43870000      -3.77130000      -4.39560000
H        1.81740000      -2.45280000      -5.41640000
H        3.42340000      -2.32170000      -4.71190000
