13
Properties=species:S:1:pos:R:3 gdb_19043=T pbc="F F F"
O       -0.01100000      -0.00510000      -0.28070000
C        0.00020000       1.16180000      -0.02430000
O       -1.13690000       1.88440000       0.23710000
C       -0.74120000       3.20470000       0.62820000
C        0.05660000       3.10820000       1.94420000
N        1.35320000       3.04490000       1.18710000
C        0.62700000       3.48560000      -0.04530000
C        1.16490000       2.11270000       0.01430000
H       -1.58990000       3.87570000       0.52390000
H        0.05400000       4.03620000       2.51990000
H       -0.16480000       2.25400000       2.59080000
H        0.94900000       4.29280000      -0.69090000
H        2.09350000       1.81230000      -0.45060000
