19
Properties=species:S:1:pos:R:3 gdb_86790=T pbc="F F F"
C        0.28200000       1.48620000      -0.18300000
C        0.02950000       0.01740000       0.09020000
O        0.80920000      -0.85540000      -0.76470000
C        1.31930000      -1.60690000       0.35650000
C        2.84660000      -1.70160000       0.37840000
C        3.37140000      -2.55590000      -0.67850000
C        3.78760000      -3.27140000      -1.54940000
C        0.64000000      -0.63640000       1.36280000
O        1.45790000       0.14420000       2.19670000
H        1.34140000       1.74590000      -0.08320000
H       -0.01630000       1.72660000      -1.20770000
H       -0.29720000       2.11210000       0.50300000
H       -1.04230000      -0.20130000      -0.01490000
H        0.89430000      -2.61910000       0.37580000
H        3.27650000      -0.69670000       0.28590000
H        3.15160000      -2.08380000       1.36100000
H        4.16100000      -3.89730000      -2.32130000
H       -0.08460000      -1.11060000       2.02710000
H        2.04340000       0.68000000       1.65200000
