21
Properties=species:S:1:pos:R:3 gdb_110413=T pbc="F F F"
C        0.02700000       1.54170000       0.00350000
C       -0.06520000       0.01750000       0.13360000
C        0.78960000      -0.54480000       1.26780000
C        0.86420000      -2.07130000       1.30010000
C        2.13220000      -2.09360000       0.46280000
C        2.32130000      -0.60480000       0.96740000
C        2.95300000      -1.16670000       2.27470000
C        2.22600000      -2.45990000       1.91430000
O        2.46740000      -3.72660000       2.40570000
H        1.05360000       1.86640000      -0.19680000
H       -0.60090000       1.90860000      -0.81430000
H       -0.30170000       2.03780000       0.92360000
H       -1.11210000      -0.26880000       0.30120000
H        0.23260000      -0.45780000      -0.81000000
H        0.52510000      -0.04530000       2.21140000
H        0.05580000      -2.79330000       1.28010000
H        2.40330000      -2.62590000      -0.43650000
H        2.81660000       0.19260000       0.41710000
H        4.03570000      -1.29250000       2.18420000
H        2.71220000      -0.65360000       3.21410000
H        1.95460000      -3.84200000       3.21340000
