13
Properties=species:S:1:pos:R:3 gdb_76369=T pbc="F F F"
O        0.08670000       1.37060000      -0.08540000
C        0.04890000       0.00880000      -0.03620000
C       -0.35660000      -0.67510000       1.21360000
O       -0.65580000       0.20080000       2.23770000
C       -1.35070000      -0.73640000       0.00190000
C       -2.52480000       0.07870000       0.10420000
N       -3.45620000       0.75250000       0.23040000
C       -1.45450000      -1.98240000      -0.69880000
N       -1.47650000      -2.99910000      -1.25050000
H       -0.24200000       1.70960000       0.76030000
H        0.76850000      -0.46570000      -0.69370000
H        0.09120000      -1.62770000       1.48860000
H       -1.43230000      -0.10190000       2.72350000
