19
Properties=species:S:1:pos:R:3 gdb_50622=T pbc="F F F"
O       -0.64150000       0.35120000       0.16070000
C       -0.23950000       1.48000000       0.06060000
C        1.23300000       1.88500000      -0.02640000
C        1.43880000       2.63410000      -1.35330000
C        2.84610000       3.23310000      -1.54920000
C        3.06440000       4.52270000      -0.80840000
C        2.72660000       4.75860000       0.46690000
C        2.13500000       3.83140000       1.42570000
C        1.55970000       2.63120000       1.24310000
H       -0.94160000       2.34580000       0.03150000
H        1.79610000       0.94280000      -0.03730000
H        1.23000000       1.93130000      -2.16810000
H        0.69980000       3.43970000      -1.43820000
H        3.59970000       2.49310000      -1.24370000
H        3.01090000       3.40360000      -2.61810000
H        3.53190000       5.32950000      -1.36730000
H        2.95830000       5.74030000       0.87360000
H        2.20720000       4.16430000       2.45980000
H        1.24640000       2.10240000       2.14210000
