15
Properties=species:S:1:pos:R:3 gdb_49679=T pbc="F F F"
O        0.02200000       0.00360000       0.46100000
C       -0.00270000       1.14510000       0.07250000
C        1.22920000       1.97530000      -0.04860000
C        1.49510000       2.92230000      -1.20110000
C        0.31330000       3.34620000      -2.06080000
O       -0.64070000       3.95100000      -1.17450000
C       -0.10400000       4.18000000       0.06680000
O       -0.66090000       4.83870000       0.89220000
C        1.23080000       3.49670000       0.15490000
H       -0.95530000       1.63490000      -0.21590000
H        2.10670000       1.47180000       0.34360000
H        2.48090000       2.91110000      -1.64850000
H        0.62120000       4.09230000      -2.80120000
H       -0.17870000       2.52030000      -2.58170000
H        1.97110000       3.92780000       0.81430000
