16
Properties=species:S:1:pos:R:3 gdb_61362=T pbc="F F F"
C       -0.05920000       1.43970000      -0.11590000
C        0.04420000      -0.07720000      -0.04510000
O        0.78100000      -0.51950000       1.11040000
C        2.12180000      -0.61130000       0.99150000
N        2.73370000      -0.31550000      -0.08330000
C        2.72760000      -1.07660000       2.20840000
C        3.28070000      -1.46180000       3.20360000
C       -1.30720000      -0.77130000       0.05030000
O       -2.30480000      -0.36590000      -0.48410000
H        0.91900000       1.87660000      -0.32220000
H       -0.75420000       1.70890000      -0.91450000
H       -0.44420000       1.83970000       0.82610000
H        0.54950000      -0.46040000      -0.94190000
H        3.73460000      -0.46330000       0.01790000
H        3.76650000      -1.80250000       4.08530000
H       -1.28850000      -1.71100000       0.64440000
