17
Properties=species:S:1:pos:R:3 gdb_26730=T pbc="F F F"
C       -0.00740000       1.53180000       0.01830000
C        0.00750000       0.03490000       0.00730000
C        0.00220000      -0.77510000      -1.09700000
N        0.03180000      -0.50560000      -2.48050000
N        0.01760000      -2.10890000      -0.65740000
C        0.08760000      -3.23870000      -1.46470000
O        0.08860000      -4.36640000      -1.03740000
C        0.01680000      -2.12130000       0.73220000
C        0.02470000      -0.83030000       1.16070000
H        0.93870000       1.94990000       0.38330000
H       -0.18180000       1.93560000      -0.98390000
H       -0.79910000       1.91770000       0.67020000
H        0.54370000       0.34410000      -2.68130000
H       -0.89350000      -0.42190000      -2.89080000
H        0.14750000      -2.97230000      -2.53050000
H        0.01370000      -3.06430000       1.25110000
H        0.02690000      -0.50780000       2.19150000
