12
Properties=species:S:1:pos:R:3 gdb_1597=T pbc="F F F"
N       -0.08470000       1.25820000       0.03170000
C        0.02480000      -0.08130000      -0.10330000
O        1.04630000      -0.66830000      -0.40950000
C       -1.28440000      -0.90140000       0.07860000
O       -0.95800000      -2.26280000       0.09970000
C       -2.02170000      -0.48480000       1.27410000
C       -2.63300000      -0.10940000       2.23870000
H        0.75540000       1.81190000      -0.02120000
H       -0.89300000       1.65070000       0.48630000
H       -1.90890000      -0.67050000      -0.80310000
H       -0.01020000      -2.28190000      -0.12620000
H       -3.17660000       0.19880000       3.09800000
