16
Properties=species:S:1:pos:R:3 gdb_42896=T pbc="F F F"
O       -0.16430000       0.03050000      -0.15740000
C       -0.12950000       1.21370000       0.01900000
C       -1.13350000       2.32510000      -0.04160000
C       -0.84880000       3.28890000       1.06130000
N        0.00920000       3.35090000      -0.11690000
C        1.01090000       2.24630000       0.07580000
C        2.13000000       2.35620000       1.12490000
O        3.15040000       2.21770000       0.12020000
C        2.16880000       2.13350000      -0.93250000
H       -2.02510000       2.37910000      -0.65480000
H       -1.53240000       4.12740000       1.15250000
H       -0.44140000       2.93070000       2.00430000
H        2.16690000       3.32970000       1.63120000
H        2.16990000       1.55100000       1.86790000
H        2.22090000       1.18060000      -1.47080000
H        2.22510000       2.97340000      -1.63370000
