16
Properties=species:S:1:pos:R:3 gdb_55210=T pbc="F F F"
N       -0.02750000       1.30770000       0.20200000
C        0.05930000      -0.04290000       0.03280000
N        1.19030000      -0.62970000      -0.08450000
N       -1.19680000      -0.70560000       0.04740000
C       -1.28550000      -2.15560000       0.05210000
C       -2.76420000      -2.41000000       0.05840000
C       -3.43100000      -1.25650000       0.04100000
C       -2.46950000      -0.12680000       0.02430000
O       -2.72880000       1.06250000      -0.01110000
H        0.82260000       1.80840000       0.00580000
H       -0.92250000       1.75160000       0.04770000
H        1.10540000      -1.63700000      -0.16330000
H       -0.80780000      -2.59130000      -0.83630000
H       -0.78860000      -2.58370000       0.93300000
H       -3.17500000      -3.41070000       0.07050000
H       -4.49830000      -1.08960000       0.03460000
