23
Properties=species:S:1:pos:R:3 gdb_96482=T pbc="F F F"
C       -0.11030000       1.58550000       0.10390000
C       -0.07250000       0.06360000      -0.00970000
C        0.42280000      -0.38230000      -1.40790000
C        0.29680000      -1.85980000      -1.69570000
C        1.08220000      -2.82060000      -1.20360000
C        2.20790000      -2.59370000      -0.23240000
C        1.74910000      -2.63250000       1.24270000
C        0.56030000      -1.70920000       1.52920000
O        0.77690000      -0.39490000       1.03570000
H        0.89000000       2.00350000      -0.04940000
H       -0.78340000       2.01770000      -0.64260000
H       -0.45280000       1.88130000       1.09880000
H       -1.08730000      -0.33460000       0.14810000
H       -0.14510000       0.17820000      -2.15890000
H        1.46620000      -0.05430000      -1.49640000
H       -0.52100000      -2.14890000      -2.35280000
H        0.86980000      -3.85370000      -1.47330000
H        2.99460000      -3.34200000      -0.37850000
H        2.66010000      -1.61330000      -0.41130000
H        1.46250000      -3.65170000       1.53420000
H        2.59690000      -2.34880000       1.87710000
H       -0.35450000      -2.12990000       1.09540000
H        0.40880000      -1.64190000       2.61550000
