19
Properties=species:S:1:pos:R:3 gdb_61015=T pbc="F F F"
C       -0.01450000       1.43830000      -0.08610000
C        0.08780000      -0.07510000       0.18030000
C        0.70390000      -0.31790000       1.54450000
O        1.71430000      -0.93780000       1.75130000
C       -1.30000000      -0.71910000       0.13620000
O       -2.00890000      -0.47810000      -1.11510000
C       -2.29440000      -1.87770000      -1.23230000
C       -1.03810000      -2.66290000      -1.40960000
C       -1.46690000      -2.23150000      -0.01960000
H        0.97740000       1.89580000      -0.13590000
H       -0.52960000       1.60890000      -1.03390000
H       -0.58270000       1.94250000       0.70400000
H        0.73670000      -0.54700000      -0.56240000
H        0.13510000       0.14630000       2.38680000
H       -1.91440000      -0.33760000       0.96430000
H       -3.28700000      -2.16420000      -1.55800000
H       -1.17160000      -3.72350000      -1.59870000
H       -0.18590000      -2.21210000      -1.90900000
H       -1.65250000      -2.93000000       0.78430000
