15
Properties=species:S:1:pos:R:3 gdb_128344=T pbc="F F F"
C       -0.02030000       1.42660000       0.03880000
N        0.04880000      -0.01340000      -0.07790000
C        0.64060000      -0.65090000      -1.09440000
N        1.20960000       0.00870000      -2.07370000
N        1.75690000      -0.80330000      -3.01330000
N        1.78690000      -2.11570000      -3.06250000
N        1.23830000      -2.79420000      -2.11820000
C        0.62170000      -2.12420000      -1.05960000
N        0.04770000      -2.70500000      -0.07210000
H        0.98170000       1.86870000       0.07460000
H       -0.54930000       1.86730000      -0.81370000
H       -0.55290000       1.67990000       0.95630000
H       -0.35300000      -0.63100000       0.61370000
H        2.20580000      -0.33700000      -3.78580000
H        0.11320000      -3.71850000      -0.18300000
