11
Properties=species:S:1:pos:R:3 gdb_430=T pbc="F F F"
O        0.12790000       1.39400000       0.14450000
C        0.01700000      -0.00140000       0.04880000
C       -1.42000000      -0.51450000      -0.16350000
O       -1.01730000      -1.12530000      -1.43560000
C        0.25340000      -0.60850000      -1.32610000
N        1.22760000      -0.60440000      -2.11350000
H        0.97730000       1.64090000      -0.23920000
H        0.56000000      -0.51870000       0.85110000
H       -1.79240000      -1.26820000       0.53240000
H       -2.15090000       0.28060000      -0.32230000
H        1.01190000      -1.07290000      -2.99500000
