16
Properties=species:S:1:pos:R:3 gdb_39527=T pbc="F F F"
C       -0.11290000       1.49020000      -0.05030000
N        1.25280000       2.01580000       0.11240000
C        2.04510000       1.05570000      -0.13440000
O        3.27640000       0.95050000       0.42680000
C        3.12900000      -0.11820000       1.42910000
O        1.78760000      -0.34060000       1.79060000
C        1.04040000      -0.83910000       0.68780000
C        0.03450000      -0.03050000      -0.16050000
C        1.44760000      -0.25000000      -0.61840000
H       -0.68140000       1.80290000       0.83220000
H       -0.62620000       1.89990000      -0.93060000
H        3.58170000      -1.02760000       1.01240000
H        3.65930000       0.22110000       2.31900000
H        0.82200000      -1.90050000       0.77430000
H       -0.78820000      -0.61830000      -0.55250000
H        1.82920000      -0.79040000      -1.47570000
