22
Properties=species:S:1:pos:R:3 gdb_16390=T pbc="F F F"
C       -0.14530000       1.54560000      -0.09550000
C        0.06950000       0.03270000      -0.03620000
C        0.96050000      -0.53710000      -1.16550000
C        1.19480000      -1.99730000      -0.68370000
C        1.99000000      -1.28030000       0.44450000
C        2.40160000      -0.25460000      -0.65090000
C        0.86530000      -0.54170000       1.20820000
C        1.35620000       0.46170000       2.25250000
H        0.79580000       2.10360000      -0.10220000
H       -0.69190000       1.81430000      -1.00620000
H       -0.73390000       1.90220000       0.75600000
H       -0.91720000      -0.44350000      -0.08220000
H        0.66010000      -0.30900000      -2.18990000
H        0.32070000      -2.59260000      -0.39950000
H        1.83740000      -2.56840000      -1.35830000
H        2.73180000      -1.80460000       1.04990000
H        3.16640000      -0.65100000      -1.32300000
H        2.66910000       0.76240000      -0.35240000
H        0.23900000      -1.27810000       1.72590000
H        2.03060000       1.21230000       1.82950000
H        0.52280000       0.99450000       2.72170000
H        1.90180000      -0.05740000       3.04830000
