15
Properties=species:S:1:pos:R:3 gdb_23562=T pbc="F F F"
O       -0.12530000       1.33990000       0.10200000
N        0.02070000      -0.04390000      -0.06620000
C       -1.10030000      -0.62880000      -0.09020000
C       -2.54910000      -0.26930000       0.08620000
N       -3.26840000      -0.90230000      -1.06720000
C       -2.90410000      -1.72920000       0.10160000
C       -1.43680000      -2.10500000      -0.11210000
C       -0.81270000      -3.25590000      -0.75720000
O       -0.75980000      -3.06580000       0.66890000
H        0.78970000       1.64090000       0.12180000
H       -2.97050000       0.56490000       0.62780000
H       -4.25170000      -0.64810000      -0.95900000
H       -3.63110000      -2.25780000       0.70330000
H       -1.43330000      -4.08350000      -1.09630000
H        0.13550000      -3.12610000      -1.27470000
