19
Properties=species:S:1:pos:R:3 gdb_119294=T pbc="F F F"
C        0.18110000       1.41120000       0.11030000
N        0.14510000      -0.04100000       0.02150000
C        0.61690000      -0.56270000      -1.24280000
C        0.53470000      -2.08750000      -1.23520000
C        1.34240000      -2.83330000      -2.33360000
C        2.17020000      -3.38380000      -1.15650000
O        1.37740000      -2.64500000      -0.19460000
C       -0.85520000      -2.55090000      -1.09060000
N       -1.93660000      -2.95310000      -1.02920000
H        1.17490000       1.85270000      -0.08630000
H       -0.52090000       1.84050000      -0.61330000
H       -0.13910000       1.72210000       1.10840000
H        0.69400000      -0.45500000       0.76770000
H       -0.01280000      -0.17480000      -2.05430000
H        1.66270000      -0.28850000      -1.48190000
H        0.77700000      -3.57040000      -2.90170000
H        1.87220000      -2.16770000      -3.01630000
H        2.09620000      -4.46370000      -0.99160000
H        3.22280000      -3.08440000      -1.12550000
