22
Properties=species:S:1:pos:R:3 gdb_111689=T pbc="F F F"
C        0.35320000       1.70980000       0.16260000
C        0.07330000       0.20900000       0.24110000
N        0.65100000      -0.45720000      -0.92260000
C        1.87710000      -1.23520000      -0.90980000
C        2.40280000      -1.81020000       0.40320000
C        1.24300000      -2.64050000       1.00440000
C        0.23110000      -2.89010000      -0.14670000
O       -1.13290000      -2.76060000       0.24180000
C        0.55710000      -1.87260000      -1.22590000
H        1.43020000       1.90810000       0.17760000
H       -0.05100000       2.12880000      -0.76310000
H       -0.09840000       2.23260000       1.01220000
H        0.44560000      -0.17400000       1.20140000
H       -1.00380000       0.01830000       0.22640000
H        2.60320000      -0.98080000      -1.67910000
H        3.26710000      -2.44540000       0.18070000
H        2.75660000      -1.03310000       1.09050000
H        1.60010000      -3.57960000       1.43760000
H        0.72830000      -2.09740000       1.80130000
H        0.39720000      -3.88980000      -0.58010000
H       -1.32480000      -3.44520000       0.89040000
H        0.23540000      -2.10760000      -2.23820000
