21
Properties=species:S:1:pos:R:3 gdb_68992=T pbc="F F F"
C       -0.16190000       1.44850000       0.17060000
C        0.04220000      -0.02850000       0.09460000
C       -0.75770000      -1.08940000       0.79480000
C        0.75490000      -1.06200000       0.95560000
C        1.35620000      -1.53440000      -0.36810000
O        0.58310000      -0.56440000      -1.12250000
C        1.50440000      -0.99470000       2.23570000
C        0.82830000      -0.81240000       3.57330000
C        1.44900000      -2.13930000       3.22850000
H        0.76010000       1.98470000      -0.07490000
H       -0.93790000       1.76700000      -0.53510000
H       -0.47880000       1.73930000       1.17620000
H       -1.31780000      -0.75210000       1.66110000
H       -1.23830000      -1.87300000       0.21370000
H        2.42940000      -1.32540000      -0.45750000
H        1.15560000      -2.56630000      -0.68230000
H        2.47660000      -0.51470000       2.14490000
H        1.32420000      -0.18410000       4.30480000
H       -0.25380000      -0.75580000       3.60420000
H        0.77810000      -2.96070000       3.00170000
H        2.36520000      -2.43190000       3.72910000
