13
Properties=species:S:1:pos:R:3 gdb_25544=T pbc="F F F"
O        0.62370000       2.49180000       1.38430000
C        0.21220000       1.98140000       0.36640000
N        0.97490000       1.20600000      -0.46500000
C        2.30920000       0.91650000      -0.23700000
C        3.18450000       1.24070000       0.72520000
N        4.38390000       0.61190000       0.34990000
C        4.23340000      -0.08030000      -0.82040000
O        5.00750000      -0.73630000      -1.45790000
O        2.89690000       0.12220000      -1.18820000
H       -0.82320000       2.08440000      -0.00380000
H        0.56710000       0.81300000      -1.29990000
H        3.06360000       1.83850000       1.60700000
H        5.25740000       0.64060000       0.84450000
