16
Properties=species:S:1:pos:R:3 gdb_77059=T pbc="F F F"
O        0.14430000       1.47240000       0.05580000
C        0.10300000       0.06960000       0.03460000
C       -1.31600000      -0.57620000       0.18710000
C       -2.49490000       0.40470000       0.20270000
C       -3.75910000      -0.27530000      -0.05050000
C       -4.77600000      -0.87610000      -0.27480000
N       -1.06860000      -1.22550000      -1.10880000
C        0.10950000      -0.57980000      -1.37430000
O        0.82810000      -0.50110000      -2.33590000
H        0.70070000       1.75330000      -0.68020000
H        0.84160000      -0.36800000       0.71830000
H       -1.40600000      -1.29080000       1.01070000
H       -2.52070000       0.90910000       1.17620000
H       -2.32120000       1.18550000      -0.54460000
H       -5.69000000      -1.38240000      -0.46430000
H       -1.68590000      -1.76780000      -1.69700000
