17
Properties=species:S:1:pos:R:3 gdb_126911=T pbc="F F F"
C       -0.02000000       1.51610000      -0.15460000
C       -0.18620000       0.03090000      -0.45580000
N        1.09320000      -0.55930000      -0.88540000
C        1.06560000      -1.90860000      -1.24730000
C        1.23230000      -2.42850000      -2.52790000
N        1.40960000      -1.72400000      -3.67650000
O        1.15450000      -3.72430000      -2.54170000
N        0.89050000      -4.08260000      -0.99780000
N        0.86210000      -2.99270000      -0.43450000
H        0.68770000       1.67580000       0.66730000
H        0.35500000       2.05220000      -1.03160000
H       -0.97520000       1.95830000       0.14260000
H       -0.59760000      -0.48960000       0.42300000
H       -0.90200000      -0.11430000      -1.27230000
H        1.81530000      -0.36490000      -0.19890000
H        1.69240000      -0.76530000      -3.53490000
H        1.83870000      -2.20630000      -4.44980000
