19
Properties=species:S:1:pos:R:3 gdb_73714=T pbc="F F F"
O       -0.01680000       1.40830000       0.13510000
C        0.01600000       0.00930000      -0.00960000
C        1.03350000      -0.61340000       0.94690000
O        1.39700000      -1.92440000       0.56560000
C        0.27210000      -2.69110000       0.16710000
C       -0.67090000      -1.87940000      -0.70660000
C       -1.38770000      -0.64350000      -0.07710000
C       -1.52710000      -0.07830000      -1.51930000
C       -0.07700000      -0.63450000      -1.44320000
H        0.86720000       1.75190000      -0.03400000
H        1.96110000      -0.02730000       0.93960000
H        0.63430000      -0.58540000       1.97560000
H        0.67400000      -3.54860000      -0.38250000
H       -0.26790000      -3.08340000       1.04730000
H       -1.32280000      -2.51320000      -1.31430000
H       -2.13600000      -0.65180000       0.71790000
H       -2.21080000      -0.61830000      -2.18000000
H       -1.63370000       1.00110000      -1.60980000
H        0.68510000      -0.63370000      -2.22420000
