11
Properties=species:S:1:pos:R:3 gdb_23623=T pbc="F F F"
F        0.09470000       0.06030000       0.00200000
C       -0.05430000       1.36310000       0.01110000
C       -1.23750000       1.99220000       0.03070000
C       -1.28330000       3.45740000       0.03910000
O       -2.31680000       4.10530000       0.05700000
C        0.05850000       4.07040000       0.02430000
C        1.16550000       3.32070000       0.00510000
O        1.14500000       1.95410000      -0.00210000
H       -2.15520000       1.42050000       0.04010000
H        0.13490000       5.15030000       0.02920000
H        2.18420000       3.68350000      -0.00680000
