16
Properties=species:S:1:pos:R:3 gdb_31866=T pbc="F F F"
N       -0.02610000       1.38160000       0.13340000
C       -0.00160000       0.00400000       0.04950000
C       -1.18730000      -0.75960000       0.03240000
N       -1.16620000      -2.08080000       0.00320000
C        0.03310000      -2.68230000      -0.00340000
C        0.02390000      -4.18990000      -0.03040000
O        1.35780000      -4.66580000      -0.05550000
C        1.20120000      -1.92780000       0.01200000
N        1.19200000      -0.59120000       0.03280000
H        0.84930000       1.82110000      -0.11060000
H       -0.84110000       1.84710000      -0.23370000
H       -2.16120000      -0.27350000       0.04290000
H       -0.52200000      -4.55600000       0.85380000
H       -0.54460000      -4.52420000      -0.91300000
H        1.33340000      -5.62610000      -0.05890000
H        2.16950000      -2.41470000       0.00090000
