17
Properties=species:S:1:pos:R:3 gdb_62532=T pbc="F F F"
C       -0.06910000       1.50610000      -0.13820000
C       -0.03370000      -0.01090000       0.01530000
N       -1.37760000      -0.53170000       0.12710000
C        0.88060000      -0.74060000      -1.03940000
O        1.85010000      -1.04260000       0.02650000
C        1.03940000      -0.48900000       0.99710000
N        1.17100000      -0.43530000       2.24150000
C        0.36440000      -1.93410000      -1.67220000
C       -0.07790000      -2.92270000      -2.19310000
H        0.93380000       1.91490000      -0.28940000
H       -0.70340000       1.77930000      -0.98580000
H       -0.47990000       1.96130000       0.76840000
H       -1.36390000      -1.53860000       0.25910000
H       -1.82810000      -0.13040000       0.94450000
H        1.33690000      -0.07000000      -1.77290000
H        2.03120000      -0.88810000       2.55550000
H       -0.46230000      -3.79450000      -2.66310000
