18
Properties=species:S:1:pos:R:3 gdb_46203=T pbc="F F F"
N       -0.10060000       1.21940000      -0.33300000
C       -0.09020000      -0.00200000      -0.04100000
O        0.93800000      -0.80180000       0.43280000
C        0.07110000      -1.97960000       0.47180000
C       -1.07880000      -1.12170000      -0.04950000
C       -2.51690000      -1.18660000       0.38070000
C       -3.26920000       0.06130000      -0.10240000
C       -2.86180000      -0.28700000      -1.57400000
C       -2.11960000      -1.52640000      -1.05460000
H        0.81570000       1.64440000      -0.18010000
H        0.44480000      -2.76130000      -0.19580000
H       -0.02240000      -2.36170000       1.49240000
H       -2.81030000      -1.84410000       1.19180000
H       -4.34660000      -0.01370000       0.05780000
H       -2.90930000       1.01490000       0.28880000
H       -3.72380000      -0.54610000      -2.19210000
H       -2.24890000       0.45040000      -2.09610000
H       -2.05310000      -2.49180000      -1.54440000
