21
Properties=species:S:1:pos:R:3 gdb_75596=T pbc="F F F"
C       -0.00250000       1.56050000      -0.19190000
C        0.01370000       0.06070000      -0.01230000
C       -1.11000000      -0.67100000      -0.09630000
C       -1.22410000      -2.17230000      -0.07750000
C       -1.28760000      -2.84200000       1.31680000
O       -0.03760000      -3.06550000       1.92710000
C        0.69550000      -1.88790000       2.26400000
C        1.63520000      -1.42110000       1.17930000
C        1.33250000      -0.54430000       0.21370000
H        0.65660000       1.86080000      -1.01670000
H       -1.00790000       1.92910000      -0.41130000
H        0.36570000       2.07580000       0.70340000
H       -2.04520000      -0.13190000      -0.24300000
H       -2.13930000      -2.45330000      -0.61160000
H       -0.38430000      -2.63050000      -0.61100000
H       -1.94390000      -2.25580000       1.98110000
H       -1.72460000      -3.83970000       1.20850000
H        0.00150000      -1.08080000       2.53630000
H        1.27590000      -2.15220000       3.15430000
H        2.64740000      -1.81700000       1.22140000
H        2.13090000      -0.21060000      -0.45010000
