21
Properties=species:S:1:pos:R:3 gdb_58872=T pbc="F F F"
C        0.05570000       1.54200000       0.23200000
C        0.00340000       0.03230000      -0.01400000
O        0.84770000      -0.67060000       0.89380000
C       -1.40810000      -0.50740000       0.01310000
C       -2.09470000      -1.05180000       1.25450000
C       -1.92700000      -1.92100000       0.04550000
O       -2.95430000      -1.66300000      -0.91500000
C       -2.45350000      -0.30430000      -1.09660000
C       -3.53230000       0.75440000      -0.99500000
H        1.09110000       1.89340000       0.20900000
H       -0.51180000       2.08860000      -0.52810000
H       -0.37740000       1.78860000       1.20920000
H        0.42980000      -0.17820000      -1.00380000
H        0.67730000      -0.32420000       1.77630000
H       -1.41720000      -1.28360000       2.07020000
H       -3.08660000      -0.72600000       1.55320000
H       -1.42790000      -2.88230000       0.02240000
H       -1.95450000      -0.24300000      -2.07450000
H       -4.00600000       0.75480000      -0.01000000
H       -3.11050000       1.74810000      -1.18070000
H       -4.30730000       0.57100000      -1.74620000
