14
Properties=species:S:1:pos:R:3 gdb_24764=T pbc="F F F"
O        0.02950000      -0.03240000       0.00400000
C        0.01690000       1.17790000       0.01080000
C       -1.20760000       2.08770000       0.03080000
C       -0.81880000       3.37390000       0.03200000
C        0.66720000       3.43340000       0.01240000
C        1.13910000       2.13790000      -0.00010000
N        2.50300000       2.17010000      -0.01870000
C        2.90610000       3.47900000      -0.01780000
C        1.77850000       4.29860000       0.00150000
H       -2.21380000       1.69420000       0.04210000
H       -1.46880000       4.23980000       0.04480000
H        3.11260000       1.36950000      -0.03090000
H        3.95390000       3.73450000      -0.03080000
H        1.79400000       5.37770000       0.00650000
