25
Properties=species:S:1:pos:R:3 gdb_122972=T pbc="F F F"
C        0.02880000       1.56490000       0.09680000
C        0.00070000       0.04670000       0.03680000
O        0.70160000      -0.46260000       1.15060000
C        0.72370000      -1.87390000       1.19700000
C        1.46880000      -2.30070000       2.45510000
C        1.60700000      -3.81660000       2.58740000
C        2.43260000      -4.20600000       3.81700000
O        0.28540000      -4.34610000       2.64450000
C        0.18440000      -5.72490000       2.38080000
H        1.05940000       1.93070000       0.07740000
H       -0.50780000       1.99170000      -0.75600000
H       -0.44240000       1.92050000       1.01750000
H       -1.03980000      -0.32140000       0.04000000
H        0.46150000      -0.31110000      -0.90060000
H       -0.29840000      -2.28040000       1.20680000
H        1.22600000      -2.27810000       0.29940000
H        2.46650000      -1.84810000       2.44820000
H        0.94250000      -1.91020000       3.33370000
H        2.10550000      -4.21140000       1.68370000
H        2.54020000      -5.29070000       3.90560000
H        3.43800000      -3.77820000       3.75330000
H        1.95380000      -3.83280000       4.72780000
H        0.65610000      -6.34410000       3.15770000
H       -0.88070000      -5.96870000       2.34760000
H        0.63680000      -5.98830000       1.41130000
