20
Properties=species:S:1:pos:R:3 gdb_60646=T pbc="F F F"
C       -0.25360000       1.76350000      -0.27570000
C       -0.07000000       0.24970000      -0.08820000
C       -1.41980000      -0.46810000       0.01470000
C       -1.40430000      -1.94620000       0.46810000
O       -2.15720000      -1.63940000       1.65900000
C       -2.23740000      -0.24380000       1.30750000
C        0.69450000      -0.31940000      -1.28920000
N        1.86040000      -0.96440000      -0.99640000
O        0.27330000      -0.21720000      -2.42620000
H        0.70900000       2.28390000      -0.27390000
H       -0.74310000       1.96020000      -1.23290000
H       -0.86560000       2.18470000       0.52780000
H        0.49370000       0.06250000       0.83580000
H       -1.97830000      -0.29860000      -0.90760000
H       -1.93380000      -2.65150000      -0.18340000
H       -0.41340000      -2.35940000       0.70150000
H       -1.76290000       0.39700000       2.06350000
H       -3.27430000       0.08570000       1.16770000
H        2.23960000      -0.99660000      -0.06700000
H        2.41060000      -1.32630000      -1.75890000
