16
Properties=species:S:1:pos:R:3 gdb_105287=T pbc="F F F"
N        0.10620000       1.43570000      -0.15790000
C       -0.26630000       0.06720000       0.17490000
C        0.80180000      -0.54730000       1.06640000
C        1.17280000      -2.01030000       0.94910000
N        2.01890000      -0.98980000       0.38570000
C        3.32360000      -0.74880000       0.82820000
O        4.12280000      -1.61550000       1.06090000
C        0.94540000       0.06220000       2.37540000
N        1.04540000       0.54130000       3.42250000
H        0.85780000       1.43480000      -0.84010000
H       -0.67560000       1.92850000      -0.57400000
H       -1.21290000       0.08430000       0.72510000
H       -0.39690000      -0.60300000      -0.68960000
H        1.53360000      -2.51700000       1.83950000
H        0.62150000      -2.62540000       0.24370000
H        3.54970000       0.33160000       0.86760000
