19
Properties=species:S:1:pos:R:3 gdb_74759=T pbc="F F F"
C        0.08300000       1.43110000       0.06060000
C       -0.00660000      -0.05320000       0.00500000
C       -0.01850000      -0.91870000      -1.01870000
C       -0.02380000      -2.28640000      -0.30680000
N       -0.99350000      -2.08470000       0.83030000
C       -0.01890000      -1.00510000       1.22580000
C        1.06030000      -2.02670000       0.77700000
C        1.91570000      -2.95920000       1.51770000
N        2.48340000      -1.84800000       0.69780000
H        1.00800000       1.74640000       0.56010000
H        0.07240000       1.87260000      -0.94000000
H       -0.74530000       1.86500000       0.63520000
H        0.03140000      -0.73440000      -2.08280000
H       -0.09210000      -3.20660000      -0.88820000
H       -1.86220000      -1.67150000       0.48480000
H       -0.08070000      -0.59180000       2.23290000
H        2.06330000      -2.85200000       2.58870000
H        2.00330000      -3.97810000       1.14810000
H        2.85270000      -2.19840000      -0.18270000
