19
Properties=species:S:1:pos:R:3 gdb_65141=T pbc="F F F"
O       -0.01360000       1.39150000       0.53600000
C        0.02270000       0.07040000       0.04240000
C        1.09120000      -0.32150000      -0.94460000
C        1.13450000      -0.85110000       0.47850000
C       -1.37790000      -0.45360000      -0.02300000
C       -2.47070000       0.07280000      -0.93430000
C       -1.93690000       0.24200000      -2.35340000
O       -1.44230000      -1.12800000      -2.37660000
C       -1.97520000      -1.35110000      -1.07020000
H        0.88930000       1.68110000       0.70050000
H        0.83150000      -0.99740000      -1.74820000
H        1.81020000       0.44790000      -1.21110000
H        1.88640000      -0.44950000       1.15180000
H        0.90530000      -1.89850000       0.64510000
H       -1.78740000      -0.67660000       0.96210000
H       -3.40430000       0.46890000      -0.55990000
H       -2.72260000       0.36780000      -3.10560000
H       -1.14120000       0.97710000      -2.51150000
H       -2.42320000      -2.31940000      -0.87530000
