19
Properties=species:S:1:pos:R:3 gdb_46687=T pbc="F F F"
O        0.05040000      -0.06820000       0.05970000
C       -0.04010000       1.13760000       0.00540000
C       -1.38190000       1.85780000      -0.04870000
C       -1.42840000       3.03470000      -1.05550000
C       -0.09220000       3.70540000      -1.34180000
C        0.94740000       4.19940000      -0.36140000
C        1.06090000       3.33780000       0.89640000
C        1.16570000       2.05170000       0.00080000
C        1.21410000       2.97720000      -1.24650000
H       -2.15820000       1.12050000      -0.26380000
H       -1.57460000       2.22950000       0.96570000
H       -1.79850000       2.64710000      -2.01280000
H       -2.16510000       3.77700000      -0.72610000
H       -0.13780000       4.36010000      -2.21000000
H        1.35320000       5.19990000      -0.45840000
H        2.00820000       3.50640000       1.41320000
H        0.25430000       3.39120000       1.63350000
H        2.06800000       1.46480000       0.16760000
H        1.89690000       2.84840000      -2.07690000
