19
Properties=species:S:1:pos:R:3 gdb_5520=T pbc="F F F"
C        0.21530000       1.62110000      -0.14970000
C       -0.02760000       0.11170000       0.03940000
C        0.61820000      -0.46040000       1.26290000
C        0.10770000      -0.79190000       2.50500000
C       -1.31650000      -0.66950000       2.96060000
C        1.19920000      -1.26810000       3.29440000
C        2.33340000      -1.21300000       2.52360000
N        1.97260000      -0.71970000       1.29580000
H        1.28480000       1.84450000      -0.22490000
H       -0.26930000       1.98670000      -1.06100000
H       -0.17910000       2.18650000       0.69980000
H       -1.10470000      -0.07600000       0.09080000
H        0.32620000      -0.42400000      -0.85270000
H       -1.66690000      -1.59480000       3.43230000
H       -1.44410000       0.13160000       3.69940000
H       -1.99270000      -0.45130000       2.12870000
H        1.14380000      -1.61520000       4.31570000
H        3.35420000      -1.48700000       2.73670000
H        2.59650000      -0.59140000       0.51850000
