18
Properties=species:S:1:pos:R:3 gdb_20155=T pbc="F F F"
C       -0.05190000       1.57830000       0.01160000
C        1.46880000       1.80100000       0.03480000
C        1.93920000       0.99730000       1.26310000
C        2.49730000      -0.09700000       0.39290000
C        1.12870000      -0.27030000       1.03530000
C        0.04110000       0.03280000      -0.04350000
C        0.83030000      -0.15160000      -1.36390000
C        2.06290000       0.63590000      -0.89160000
H       -0.53160000       1.95200000       0.92200000
H       -0.56020000       2.00250000      -0.86090000
H        1.85530000       2.80790000      -0.11110000
H        2.25830000       1.36370000       2.23130000
H        3.34110000      -0.75950000       0.54310000
H        0.97890000      -0.98290000       1.83540000
H       -0.89000000      -0.52380000       0.05930000
H        1.07410000      -1.19650000      -1.58150000
H        0.31640000       0.28350000      -2.22770000
H        2.82350000       0.90950000      -1.62060000
