19
Properties=species:S:1:pos:R:3 gdb_84292=T pbc="F F F"
C       -0.36110000       1.52740000      -0.04780000
C        0.03690000       0.04850000       0.00520000
C        0.97470000      -0.37240000      -1.10540000
C        1.94890000      -1.20500000      -0.71180000
C        1.79690000      -1.46680000       0.72850000
O        2.31960000      -2.31780000       1.41570000
C        0.75530000      -0.46730000       1.28280000
C        1.50070000       0.61660000       2.07610000
O       -0.15490000      -1.15280000       2.12510000
H        0.50730000       2.18990000       0.00750000
H       -0.88600000       1.74420000      -0.98410000
H       -1.03490000       1.77860000       0.77610000
H       -0.88060000      -0.54890000      -0.08180000
H        0.82520000      -0.03090000      -2.12560000
H        2.69960000      -1.67710000      -1.33240000
H        2.19410000       1.18550000       1.44850000
H        0.78710000       1.30720000       2.53220000
H        2.07880000       0.13710000       2.87180000
H        0.36950000      -1.82700000       2.58100000
