17
Properties=species:S:1:pos:R:3 gdb_73883=T pbc="F F F"
C       -0.03430000       1.46490000       0.07480000
C        0.01360000      -0.01620000      -0.01090000
C        0.01890000      -0.88750000      -1.04320000
C       -0.02960000      -0.67410000      -2.47660000
O       -0.08560000      -1.56710000      -3.29830000
C        0.07720000      -2.23600000      -0.30490000
C       -1.01310000      -2.04130000       0.78880000
C        0.06980000      -0.99300000       1.18500000
O        1.07950000      -1.94700000       0.73250000
H        0.84750000       1.84710000       0.60460000
H       -0.07730000       1.93970000      -0.90780000
H       -0.90790000       1.79290000       0.65260000
H       -0.01400000       0.39160000      -2.79530000
H        0.23900000      -3.15020000      -0.86980000
H       -2.00550000      -1.69780000       0.48910000
H       -1.05820000      -2.87210000       1.49570000
H        0.21730000      -0.60640000       2.19330000
