21
Properties=species:S:1:pos:R:3 gdb_85913=T pbc="F F F"
C       -0.20230000       1.59460000       0.15490000
C       -0.17920000       0.10300000       0.10130000
C       -0.39710000      -0.70120000      -0.94220000
C       -0.14440000      -2.15980000      -0.60180000
C       -1.08370000      -3.15200000      -1.27900000
O        1.23400000      -2.50230000      -0.91410000
C       -0.21410000      -2.13980000       0.93650000
C        0.26310000      -0.72250000       1.30750000
O        1.67680000      -0.63540000       1.47490000
H        0.77130000       1.96850000       0.49320000
H       -0.43000000       2.04050000      -0.81710000
H       -0.94440000       1.95290000       0.87960000
H       -0.65110000      -0.37690000      -1.94800000
H       -0.97810000      -3.10520000      -2.36950000
H       -0.85510000      -4.17350000      -0.96120000
H       -2.12800000      -2.93250000      -1.03530000
H        1.38670000      -2.28690000      -1.84090000
H       -1.24980000      -2.28560000       1.25790000
H        0.40720000      -2.91750000       1.38670000
H       -0.16250000      -0.36380000       2.25030000
H        2.05450000      -1.07750000       0.70160000
