19
Properties=species:S:1:pos:R:3 gdb_56810=T pbc="F F F"
C        0.18400000       1.29690000       0.25610000
C       -0.16970000      -0.18580000       0.01620000
C       -1.61630000      -0.38070000      -0.08760000
C       -2.80670000      -0.51400000      -0.19080000
C        0.53280000      -0.71200000      -1.23230000
C        2.01570000      -1.04290000      -1.20740000
O        2.71740000      -0.97850000      -0.00230000
C        0.98860000      -2.14500000      -1.34660000
O        0.81570000      -2.94220000      -0.19880000
H        1.26310000       1.39460000       0.39750000
H       -0.11870000       1.91060000      -0.59790000
H       -0.32790000       1.67710000       1.14410000
H        0.18460000      -0.76080000       0.87790000
H       -3.85740000      -0.64480000      -0.26780000
H        0.16170000      -0.27880000      -2.15740000
H        2.63250000      -0.75740000      -2.05430000
H        2.38980000      -1.71340000       0.53580000
H        0.85070000      -2.66690000      -2.29070000
H        1.34160000      -3.74110000      -0.31400000
