19
Properties=species:S:1:pos:R:3 gdb_92248=T pbc="F F F"
C       -0.08570000       1.56510000      -0.08420000
C        0.06160000       0.06050000      -0.00120000
O        1.17040000      -0.45330000      -0.80160000
C        1.61450000      -1.33170000       0.26270000
C        2.86900000      -0.81480000       1.00790000
C        1.92240000      -0.06940000       1.98030000
O        1.53520000      -0.86070000       3.13330000
C        0.22650000      -1.15160000       2.57540000
C        0.66220000      -0.59150000       1.23520000
H        0.83210000       2.06740000       0.23410000
H       -0.30430000       1.86790000      -1.11280000
H       -0.91100000       1.90320000       0.55190000
H       -0.87430000      -0.43010000      -0.31240000
H        1.53410000      -2.38840000      -0.01040000
H        3.47260000      -1.57990000       1.50240000
H        3.50490000      -0.17850000       0.38740000
H        2.12060000       0.97290000       2.24730000
H       -0.02240000      -2.21830000       2.62380000
H       -0.55970000      -0.57550000       3.08400000
