19
Properties=species:S:1:pos:R:3 gdb_97146=T pbc="F F F"
C       -0.23210000       1.37490000       0.14660000
N       -0.20810000      -0.07530000       0.21960000
C        0.66750000      -0.64540000       0.91410000
O        1.64280000      -0.00300000       1.65450000
C        2.52600000      -0.95770000       2.24740000
C        1.89910000      -2.30770000       1.94710000
C        0.51070000      -2.57410000       2.39950000
C       -0.21810000      -1.76180000       3.44290000
N        0.77780000      -2.06030000       1.02090000
H        0.67670000       1.86120000       0.51990000
H       -0.39250000       1.67380000      -0.89460000
H       -1.08630000       1.75670000       0.72000000
H        3.51590000      -0.87410000       1.78500000
H        2.61880000      -0.73210000       3.31520000
H        2.56430000      -3.12820000       1.69620000
H        0.19370000      -3.61380000       2.35620000
H        0.14540000      -0.73450000       3.51250000
H       -1.28770000      -1.72550000       3.21430000
H       -0.10050000      -2.23470000       4.42350000
