14
Properties=species:S:1:pos:R:3 gdb_7711=T pbc="F F F"
N       -0.07340000       1.30290000       0.23500000
C       -0.05160000       0.07140000      -0.02900000
C       -1.28060000      -0.79100000      -0.04310000
C       -1.22520000      -1.74850000      -1.23100000
N        0.05750000      -2.42990000      -1.19660000
C        1.23340000      -1.86150000      -0.81130000
O        2.31250000      -2.38070000      -0.89140000
O        1.14110000      -0.57790000      -0.29490000
H        0.87160000       1.69170000       0.20850000
H       -1.31250000      -1.37370000       0.88540000
H       -2.15780000      -0.14550000      -0.07610000
H       -2.02090000      -2.49480000      -1.16170000
H       -1.36570000      -1.19880000      -2.17260000
H        0.16990000      -3.31760000      -1.65860000
