18
Properties=species:S:1:pos:R:3 gdb_55264=T pbc="F F F"
C       -0.04460000       1.58900000       0.04190000
C        0.05120000       0.09780000       0.02370000
C       -0.15390000      -0.73030000      -0.99880000
C        0.03010000      -2.17120000      -0.59800000
N        0.23080000      -2.09610000       0.86580000
H       -1.42070000      -3.00720000       0.88190000
H        0.99350000      -2.68540000       1.17170000
C        0.42940000      -0.68410000       1.25980000
C       -1.21690000      -3.01430000      -0.94980000
O       -1.51320000      -3.29190000      -2.08100000
O       -1.92940000      -3.37530000       0.12150000
H        0.90840000       2.04470000       0.33890000
H       -0.31950000       1.98380000      -0.93890000
H       -0.79340000       1.92750000       0.76880000
H       -0.44000000      -0.45750000      -2.00600000
H        0.87360000      -2.63420000      -1.12970000
H        1.46950000      -0.47680000       1.55740000
H       -0.20010000      -0.42370000       2.12210000
