21
Properties=species:S:1:pos:R:3 gdb_75248=T pbc="F F F"
C        0.05460000       1.51000000       0.13090000
C        0.01450000       0.02090000       0.00030000
C       -0.13570000      -0.69400000      -1.11750000
C       -0.15800000      -2.17750000      -0.85600000
C        0.32390000      -2.29490000       0.60710000
C       -0.08190000      -3.53460000       1.43770000
C        1.42330000      -3.85330000       1.46080000
O        1.72810000      -2.68960000       0.67000000
C        0.11540000      -0.88840000       1.20630000
H        0.99710000       1.84220000       0.58480000
H       -0.04800000       2.00330000      -0.83960000
H       -0.74890000       1.87450000       0.78430000
H       -0.25460000      -0.27060000      -2.10950000
H       -1.17000000      -2.59290000      -0.97250000
H        0.50230000      -2.75480000      -1.51250000
H       -0.53410000      -3.31600000       2.40730000
H       -0.70540000      -4.25770000       0.90780000
H        1.90230000      -3.81660000       2.44740000
H        1.72450000      -4.78170000       0.95960000
H        0.94690000      -0.63680000       1.87470000
H       -0.80420000      -0.84420000       1.80870000
