12
Properties=species:S:1:pos:R:3 gdb_7018=T pbc="F F F"
N       -0.06610000       1.54810000      -0.14560000
C        0.01730000       0.29510000      -0.14730000
C       -1.15420000      -0.62500000       0.11440000
C       -2.42240000       0.06490000       0.31980000
N       -3.44800000       0.56560000       0.49000000
O        1.13540000      -0.48220000      -0.41640000
C        2.36200000      -0.07870000       0.04920000
O        3.36270000      -0.62770000      -0.27730000
H        0.80240000       2.02050000      -0.39200000
H       -1.24320000      -1.31880000      -0.73020000
H       -0.92730000      -1.24820000       0.98780000
H        2.28690000       0.76240000       0.75780000
