20
Properties=species:S:1:pos:R:3 gdb_98207=T pbc="F F F"
C       -1.01860000       1.33710000      -0.54600000
N       -1.30920000      -0.05910000      -0.29410000
C       -0.47890000      -0.86160000       0.41520000
O        0.57550000      -0.49400000       0.90440000
C       -0.93260000      -2.33560000       0.57590000
C       -0.85590000      -2.72980000       2.06700000
C       -2.23430000      -2.64630000      -0.01030000
C       -3.31440000      -2.90800000      -0.47860000
C       -4.61500000      -3.24690000      -1.04100000
H       -0.95290000       1.54230000      -1.62050000
H       -1.78600000       1.98870000      -0.11300000
H       -0.05770000       1.56040000      -0.08060000
H       -2.16090000      -0.46830000      -0.64580000
H       -0.16330000      -2.90990000       0.04170000
H       -1.00570000      -3.80550000       2.18470000
H        0.12370000      -2.45020000       2.45790000
H       -1.62720000      -2.21040000       2.64260000
H       -4.85990000      -4.29890000      -0.85750000
H       -5.41300000      -2.64060000      -0.59860000
H       -4.63700000      -3.08730000      -2.12460000
