20
Properties=species:S:1:pos:R:3 gdb_32897=T pbc="F F F"
C       -0.35230000       1.35150000       0.40020000
O       -0.36710000      -0.04360000       0.56450000
C        0.92880000      -0.60600000       0.58240000
C        0.82550000      -2.08590000       0.77690000
C       -0.33270000      -2.79450000       1.00070000
N       -0.00930000      -4.12150000       1.15380000
C       -0.96010000      -5.20140000       1.30330000
C        1.34840000      -4.26670000       1.02010000
C        1.89590000      -3.02630000       0.78830000
H        0.11780000       1.64770000      -0.55180000
H       -1.39010000       1.69400000       0.40160000
H        0.18920000       1.85550000       1.21740000
H        1.45620000      -0.37320000      -0.36080000
H        1.52740000      -0.14450000       1.38950000
H       -1.35350000      -2.45640000       1.06060000
H       -1.32770000      -5.56170000       0.33480000
H       -0.48830000      -6.03540000       1.82850000
H       -1.81440000      -4.86270000       1.89490000
H        1.80690000      -5.23990000       1.10080000
H        2.94670000      -2.81300000       0.65970000
