20
Properties=species:S:1:pos:R:3 gdb_98837=T pbc="F F F"
C       -0.48360000       1.43720000       0.12780000
C       -0.05870000      -0.02360000      -0.00240000
C        0.83920000      -0.29100000      -1.20120000
O        1.31000000       0.59260000      -1.87830000
C        1.13940000      -1.75840000      -1.47660000
N        2.17220000      -2.04710000      -2.48250000
C        2.69300000      -3.17110000      -1.67510000
C        2.02640000      -2.52620000      -0.43300000
O        2.86180000      -1.70470000       0.34460000
H        0.39050000       2.09030000       0.18180000
H       -1.07220000       1.75420000      -0.73760000
H       -1.08660000       1.58640000       1.02780000
H        0.51030000      -0.34880000       0.88020000
H       -0.92780000      -0.69310000      -0.05290000
H        0.18440000      -2.29180000      -1.62280000
H        1.85700000      -2.25070000      -3.42320000
H        2.26040000      -4.15550000      -1.90770000
H        3.78500000      -3.25620000      -1.65020000
H        1.51000000      -3.18920000       0.26130000
H        3.34630000      -1.12750000      -0.25940000
