14
Properties=species:S:1:pos:R:3 gdb_42621=T pbc="F F F"
O       -0.00950000      -0.00120000       0.31810000
C       -0.03800000       1.17700000       0.08210000
C       -1.23300000       2.06990000      -0.01470000
C       -0.78310000       3.49170000       0.10350000
C        0.64760000       3.44500000      -0.50230000
C       -0.09290000       3.21370000      -1.85350000
N       -1.41480000       3.03240000      -1.15880000
C        1.21050000       2.10430000      -0.07050000
O        2.34920000       1.78250000       0.11850000
H       -2.17620000       1.73070000       0.39370000
H       -1.21410000       4.23080000       0.76800000
H        1.32660000       4.28840000      -0.40980000
H       -0.15020000       4.12350000      -2.45330000
H        0.22370000       2.37740000      -2.48480000
