16
Properties=species:S:1:pos:R:3 gdb_51896=T pbc="F F F"
O       -0.28450000       0.31490000       0.68540000
C        0.08580000       1.01730000      -0.21770000
C        1.13000000       2.11410000      -0.06610000
N        1.04490000       3.04180000      -1.17990000
C        1.25060000       4.25790000      -0.97570000
O        1.56130000       4.92650000       0.21500000
C        1.42170000       6.19870000      -0.47170000
C        2.46820000       6.31280000      -1.51610000
C        1.19480000       5.50200000      -1.79470000
H       -0.30040000       0.90750000      -1.25540000
H        1.03140000       2.57620000       0.92370000
H        2.10920000       1.61040000      -0.08720000
H        0.88380000       6.98420000       0.03990000
H        2.51020000       7.25770000      -2.04920000
H        3.42060000       5.81060000      -1.38000000
H        0.52570000       5.70860000      -2.61610000
