25
Properties=species:S:1:pos:R:3 gdb_122641=T pbc="F F F"
C        0.01320000       1.45160000      -0.00810000
O       -0.07720000       0.04950000      -0.04550000
C        0.64430000      -0.52020000      -1.11700000
C        0.48110000      -2.03440000      -1.06680000
C        1.23330000      -2.73940000      -2.18840000
C        2.78870000      -2.77100000      -2.17820000
C        2.72710000      -4.21890000      -2.73250000
C        1.23870000      -4.30480000      -2.27810000
C        1.04410000      -5.05130000      -0.96010000
H        1.05400000       1.79350000       0.11330000
H       -0.39120000       1.91410000      -0.92320000
H       -0.57210000       1.79670000       0.84810000
H        0.27410000      -0.12560000      -2.08020000
H        1.71130000      -0.24410000      -1.04880000
H        0.82800000      -2.38600000      -0.08850000
H       -0.58960000      -2.26820000      -1.12350000
H        0.89190000      -2.34200000      -3.15260000
H        3.31720000      -2.02210000      -2.77350000
H        3.18650000      -2.73940000      -1.15860000
H        2.82950000      -4.24650000      -3.82100000
H        3.41560000      -4.95180000      -2.30240000
H        0.54890000      -4.71300000      -3.02380000
H        1.74200000      -4.70800000      -0.18850000
H        0.02890000      -4.92630000      -0.56890000
H        1.21680000      -6.12380000      -1.10250000
