19
Properties=species:S:1:pos:R:3 gdb_103586=T pbc="F F F"
C       -0.12580000       1.40630000      -0.04600000
O        0.01150000       0.00220000       0.01140000
C        0.69110000      -0.55070000       1.14460000
C        0.02630000      -0.14090000       2.46750000
C        0.70340000      -2.08000000       0.94140000
C        2.17480000      -2.50700000       1.01000000
O        2.59040000      -3.64110000       1.00930000
C        2.97750000      -1.26020000       1.07930000
C        2.17490000      -0.19470000       1.14030000
H        0.84040000       1.93000000      -0.02560000
H       -0.61170000       1.62660000      -0.99960000
H       -0.75430000       1.80410000       0.76200000
H       -1.04570000      -0.35740000       2.42690000
H        0.46450000      -0.70290000       3.29710000
H        0.15800000       0.92330000       2.68410000
H        0.11000000      -2.62830000       1.67680000
H        0.30730000      -2.31500000      -0.05010000
H        4.06060000      -1.26680000       1.08370000
H        2.50910000       0.83520000       1.20620000
