16
Properties=species:S:1:pos:R:3 gdb_26492=T pbc="F F F"
O       -0.00800000       1.37110000       0.05590000
C       -0.00120000      -0.02660000      -0.01380000
C       -0.54470000      -0.81060000       1.16450000
C       -1.36330000      -0.66410000      -0.09510000
C        1.12280000      -0.55670000      -0.80320000
C        2.09410000       0.02210000      -1.55350000
N        2.92150000      -0.96730000      -2.07960000
C        2.41920000      -2.06780000      -1.63430000
O        1.32340000      -1.91170000      -0.84600000
H        0.73290000       1.64100000       0.61140000
H       -0.10050000      -1.77450000       1.38350000
H       -0.84150000      -0.22310000       2.02580000
H       -2.20270000       0.02090000      -0.07710000
H       -1.47750000      -1.52770000      -0.73960000
H        2.24890000       1.06740000      -1.76160000
H        2.75000000      -3.08020000      -1.80380000
