19
Properties=species:S:1:pos:R:3 gdb_39370=T pbc="F F F"
C        0.00340000       1.50470000       0.08380000
C        1.49190000       1.88880000      -0.02820000
O        2.13250000       1.91120000       1.25280000
C        2.46390000       0.66870000       1.85590000
C        1.36300000      -0.33620000       2.12850000
C        0.33850000      -0.67550000       1.34190000
C        0.03530000      -0.03840000      -0.00370000
C        1.22000000      -0.25170000      -0.94160000
C        2.02660000       0.81010000      -0.95210000
H       -0.44570000       1.88250000       1.00390000
H       -0.54170000       1.91140000      -0.77480000
H        1.63560000       2.90330000      -0.41030000
H        3.24510000       0.15830000       1.26640000
H        2.92360000       0.95260000       2.80740000
H        1.48540000      -0.87520000       3.06620000
H       -0.33040000      -1.46540000       1.67520000
H       -0.89470000      -0.45110000      -0.40440000
H        1.39480000      -1.19200000      -1.45250000
H        2.97410000       0.88750000      -1.47260000
