18
Properties=species:S:1:pos:R:3 gdb_54796=T pbc="F F F"
O       -0.02980000       0.26260000       0.90970000
C        0.07300000       1.20880000       0.09040000
O        0.99450000       1.65480000      -0.58790000
C       -1.28320000       1.99250000      -0.07600000
C       -2.14270000       1.86340000      -1.35980000
C       -2.45720000       0.44010000      -0.84280000
N       -2.40810000       1.12310000       0.51680000
H       -2.05790000       0.57190000       1.31330000
C       -3.60660000       2.01630000       0.50240000
C       -3.43570000       2.61000000      -0.94170000
H       -1.23760000       2.97990000       0.39120000
H       -1.72780000       2.04610000      -2.34530000
H       -3.42480000      -0.01520000      -1.06500000
H       -1.63730000      -0.27020000      -0.89830000
H       -4.51870000       1.43350000       0.64120000
H       -3.51910000       2.75400000       1.30020000
H       -3.30180000       3.69310000      -0.91930000
H       -4.29090000       2.37890000      -1.58160000
