18
Properties=species:S:1:pos:R:3 gdb_15387=T pbc="F F F"
C        0.10180000       1.47670000      -0.26500000
C        0.50610000       0.01640000      -0.17590000
O        0.11940000      -0.62500000      -1.38840000
C        0.44210000      -1.96660000      -1.42790000
C        0.60730000      -2.57530000      -2.77400000
C        1.84030000      -2.40110000      -1.88360000
C        2.83130000      -1.42440000      -2.21810000
C        3.68010000      -0.61420000      -2.48580000
H        0.60920000       1.96160000      -1.10350000
H       -0.97760000       1.57010000      -0.41520000
H        0.37160000       2.00200000       0.65610000
H        1.59050000      -0.08370000      -0.03330000
H        0.00890000      -0.47490000       0.67640000
H       -0.00350000      -2.57040000      -0.63470000
H        0.24550000      -3.58190000      -2.94830000
H        0.52950000      -1.89800000      -3.61580000
H        2.22440000      -3.30610000      -1.42120000
H        4.42480000       0.10170000      -2.72990000
