16
Properties=species:S:1:pos:R:3 gdb_16449=T pbc="F F F"
C       -0.06540000       1.54810000       0.08480000
C        0.14370000       0.07160000       0.00340000
O       -0.78300000      -0.78940000       0.66910000
C        0.60580000      -0.94180000       0.98330000
C        1.25340000      -1.78340000      -0.15480000
O        0.44050000      -2.82370000      -0.71540000
C       -0.09380000      -1.92120000      -1.72070000
C        0.74840000      -0.74340000      -1.17890000
H        0.84250000       2.08640000      -0.20580000
H       -0.87230000       1.86320000      -0.58680000
H       -0.33700000       1.83850000       1.10310000
H        0.88210000      -0.86350000       2.02990000
H        2.30160000      -2.05930000      -0.01450000
H        0.18610000      -2.24970000      -2.72810000
H       -1.17960000      -1.81810000      -1.64270000
H        1.41720000      -0.20990000      -1.85190000
