18
Properties=species:S:1:pos:R:3 gdb_47613=T pbc="F F F"
O       -0.24040000       0.53140000       1.13960000
C       -0.14450000       1.39840000       0.31510000
O       -1.25460000       1.90170000      -0.28060000
C       -1.07740000       2.96060000      -1.23910000
C       -0.17460000       4.04410000      -0.67100000
N        1.13550000       3.46140000      -0.43770000
C        1.87250000       3.76090000       0.81030000
C        2.21250000       2.25590000       0.96320000
C        1.17350000       2.00360000      -0.15320000
H       -0.65770000       2.55370000      -2.16790000
H       -2.08000000       3.33640000      -1.44850000
H       -0.11740000       4.88660000      -1.37280000
H       -0.63170000       4.42030000       0.26100000
H        2.70980000       4.45410000       0.68200000
H        1.22360000       4.14090000       1.61450000
H        3.23060000       1.99920000       0.67000000
H        1.97710000       1.79050000       1.91920000
H        1.51930000       1.40320000      -1.00590000
