23
Properties=species:S:1:pos:R:3 gdb_1189=T pbc="F F F"
C       -0.11480000       1.53550000       0.18170000
C        0.02750000       0.02530000      -0.04170000
C        0.75910000      -0.43650000      -1.33050000
C        0.01210000       0.07260000      -2.57750000
C        2.20390000       0.09690000      -1.34200000
C        0.76070000      -1.98850000      -1.30290000
C        1.43090000      -2.71050000      -2.47780000
H        0.85630000       2.03540000       0.24970000
H       -0.68370000       2.01880000      -0.61850000
H       -0.64560000       1.72920000       1.11950000
H        0.55140000      -0.40850000       0.82080000
H       -0.97440000      -0.42500000      -0.03940000
H       -0.01880000       1.16580000      -2.60720000
H        0.50020000      -0.25810000      -3.49920000
H       -1.02140000      -0.29200000      -2.59680000
H        2.76140000      -0.24980000      -0.46410000
H        2.74550000      -0.23360000      -2.23330000
H        2.22690000       1.19070000      -1.34160000
H        1.24460000      -2.31160000      -0.37120000
H       -0.28130000      -2.32850000      -1.23130000
H        0.95210000      -2.47550000      -3.43330000
H        2.49220000      -2.45840000      -2.56530000
H        1.36560000      -3.79470000      -2.34030000
