21
Properties=species:S:1:pos:R:3 gdb_45555=T pbc="F F F"
O       -0.21090000       0.47170000       1.05460000
C       -0.11660000       1.35880000       0.24640000
C       -1.25590000       1.93430000      -0.59870000
C       -0.84060000       3.37620000      -0.94110000
C       -1.50830000       4.47060000      -0.07520000
C       -0.40560000       5.51540000       0.14940000
C        0.83560000       4.64390000       0.39020000
C        0.70940000       3.49110000      -0.63360000
C        1.16390000       2.11370000      -0.11940000
H       -1.32800000       1.31090000      -1.49980000
H       -2.21060000       1.84720000      -0.07450000
H       -1.02660000       3.59050000      -1.99640000
H       -2.41130000       4.87800000      -0.53890000
H       -1.80810000       4.04750000       0.89250000
H       -0.27160000       6.12560000      -0.75290000
H       -0.62030000       6.19890000       0.97600000
H        1.77960000       5.18800000       0.29360000
H        0.80150000       4.24030000       1.41060000
H        1.24970000       3.75980000      -1.54480000
H        1.85070000       2.14790000       0.72970000
H        1.65980000       1.53250000      -0.90820000
