18
Properties=species:S:1:pos:R:3 gdb_53049=T pbc="F F F"
C        0.03700000       1.50210000      -0.09240000
C       -0.00050000       0.04920000      -0.03390000
C       -0.02890000      -1.15420000       0.02620000
C       -0.06500000      -2.59080000       0.07590000
C        0.54180000      -3.41800000      -1.08990000
N       -0.60420000      -4.37380000      -1.02970000
C       -1.31410000      -3.52930000      -0.04070000
C       -0.97860000      -3.93300000       1.39960000
O        0.24640000      -3.15480000       1.37580000
H        0.69670000       1.85310000      -0.89350000
H       -0.95980000       1.91910000      -0.27420000
H        0.40500000       1.92250000       0.85000000
H        0.60320000      -2.84370000      -2.02100000
H        1.51400000      -3.86900000      -0.86950000
H       -1.09820000      -4.44580000      -1.91050000
H       -2.32560000      -3.20660000      -0.28850000
H       -1.67110000      -3.55090000       2.16070000
H       -0.79290000      -5.00030000       1.55370000
