18
Properties=species:S:1:pos:R:3 gdb_70217=T pbc="F F F"
O        0.04600000       1.36730000      -0.21470000
C        0.04240000      -0.02970000      -0.13470000
C       -0.38990000      -0.76030000      -1.36540000
C       -1.27200000      -0.76900000      -0.12780000
C       -1.36110000      -1.97130000       0.80430000
C       -0.67900000      -1.72930000       2.15500000
O       -1.10360000      -2.16400000       3.20750000
N        0.46410000      -0.97330000       2.07140000
C        1.08630000      -0.64500000       0.79100000
H       -0.26630000       1.71040000       0.63080000
H       -0.71960000      -0.15010000      -2.19800000
H        0.13050000      -1.67220000      -1.64230000
H       -2.15750000      -0.14430000      -0.18410000
H       -2.39340000      -2.25670000       1.01190000
H       -0.87930000      -2.84880000       0.35190000
H        1.00850000      -0.92570000       2.91980000
H        1.53910000      -1.53330000       0.32780000
H        1.88760000       0.07790000       0.96000000
