20
Properties=species:S:1:pos:R:3 gdb_32420=T pbc="F F F"
C       -0.11180000       1.55880000      -0.00730000
C        0.07150000       0.03060000      -0.01460000
C        0.75870000      -0.50290000       1.20920000
C        2.06510000      -0.91400000       1.28810000
N        2.31130000      -1.31500000       2.58970000
C        1.17110000      -1.16320000       3.32070000
O        1.21160000      -1.52370000       4.63200000
C        0.17230000      -0.66320000       2.51710000
C       -1.23770000      -0.36810000       2.93210000
H        0.85700000       2.06360000       0.06000000
H       -0.61400000       1.90050000      -0.91870000
H       -0.71260000       1.88360000       0.84830000
H       -0.91260000      -0.44420000      -0.12720000
H        0.64760000      -0.25650000      -0.90220000
H        2.83690000      -0.96330000       0.53750000
H        3.17440000      -1.67470000       2.95650000
H        0.36900000      -1.28870000       5.03240000
H       -1.43350000       0.70410000       3.06380000
H       -1.96020000      -0.73540000       2.19410000
H       -1.49270000      -0.85730000       3.88100000
