8
Properties=species:S:1:pos:R:3 gdb_8962=T pbc="F F F"
O        0.03320000      -0.07500000       0.00300000
C       -0.01660000       1.13070000       0.00680000
C        1.19510000       1.96090000       0.00080000
N        2.15000000       2.61260000      -0.00390000
C       -1.24920000       1.88130000       0.01720000
C       -2.29500000       2.48820000       0.02600000
C       -3.47360000       3.17580000       0.03590000
N       -4.47590000       3.76200000       0.04430000
