16
Properties=species:S:1:pos:R:3 gdb_47378=T pbc="F F F"
O       -0.04140000       0.10370000       0.73360000
C       -0.05650000       1.15310000       0.15400000
C       -1.35240000       1.92460000      -0.10740000
N       -1.29450000       3.07800000      -1.00030000
C       -0.05100000       3.80490000      -0.80820000
C        1.16970000       2.90210000      -1.04880000
O        1.12530000       1.72540000      -0.20480000
C        1.26830000       2.50250000      -2.45260000
C        1.31260000       2.19130000      -3.61250000
H       -2.09260000       1.20480000      -0.46290000
H       -1.69530000       2.25110000       0.88470000
H       -1.34480000       2.76660000      -1.96590000
H       -0.00720000       4.66290000      -1.48440000
H       -0.01310000       4.18150000       0.22110000
H        2.09050000       3.41480000      -0.74910000
H        1.37650000       1.90850000      -4.63480000
