17
Properties=species:S:1:pos:R:3 gdb_48783=T pbc="F F F"
O       -0.06550000       0.14650000      -0.59030000
C        0.05830000       1.11380000       0.12650000
C        1.27890000       1.95040000       0.15250000
N        2.26300000       1.75720000      -0.93440000
C        2.61310000       1.27610000       0.39210000
C        3.44470000       2.23710000       1.23590000
N        2.64090000       3.45070000       1.50980000
C        2.30430000       4.28960000       0.34930000
C        1.32690000       3.28770000       0.84560000
H       -0.74920000       1.42570000       0.82180000
H        1.92530000       0.97250000      -1.49540000
H        2.66620000       0.20490000       0.56780000
H        3.67970000       1.76540000       2.19590000
H        4.38810000       2.50040000       0.74710000
H        2.16710000       5.34080000       0.58810000
H        2.77630000       4.07980000      -0.60470000
H        0.44630000       3.58140000       1.41170000
