21
Properties=species:S:1:pos:R:3 gdb_95509=T pbc="F F F"
C       -0.04160000       1.58970000      -0.08980000
C        0.01050000       0.05100000      -0.03330000
O       -1.32720000      -0.45850000      -0.03990000
C        0.69050000      -0.50220000      -1.26140000
C        1.93970000      -0.96070000      -1.27770000
C        2.83190000      -1.02680000      -0.06400000
C        2.24450000      -0.27180000       1.14190000
C        0.73160000      -0.47950000       1.21860000
O        0.13230000       0.16260000       2.34320000
H        0.95660000       2.03170000      -0.14810000
H       -0.60250000       1.89350000      -0.97760000
H       -0.54310000       1.98610000       0.79710000
H       -1.70590000      -0.20710000       0.81120000
H        0.08240000      -0.49770000      -2.16210000
H        2.35850000      -1.33830000      -2.20790000
H        2.99370000      -2.08350000       0.19590000
H        3.82770000      -0.63540000      -0.30670000
H        2.71410000      -0.61780000       2.07100000
H        2.45670000       0.79980000       1.06420000
H        0.51870000      -1.55920000       1.25110000
H        0.45280000      -0.26760000       3.14150000
