18
Properties=species:S:1:pos:R:3 gdb_44384=T pbc="F F F"
N       -0.02170000       1.25050000      -0.42230000
C       -0.02280000       0.04690000      -0.07020000
O        1.03470000      -0.79320000       0.24620000
C        0.12850000      -1.93100000       0.43780000
C       -0.16710000      -2.33290000       1.88650000
C       -1.69720000      -2.64530000       1.75580000
C       -1.78650000      -1.10040000       1.51820000
C       -0.61510000      -0.99230000       2.53420000
C       -1.08630000      -1.01170000       0.14270000
H        0.92890000       1.62350000      -0.46110000
H        0.38740000      -2.74600000      -0.23870000
H        0.52650000      -3.01420000       2.37790000
H       -2.02440000      -3.31050000       0.95040000
H       -2.14060000      -2.95700000       2.70350000
H       -2.71240000      -0.54180000       1.64400000
H       -0.95660000      -1.13770000       3.56060000
H        0.05700000      -0.13490000       2.48000000
H       -1.73570000      -1.21970000      -0.70700000
