16
Properties=species:S:1:pos:R:3 gdb_87344=T pbc="F F F"
O       -0.74510000       1.30700000       0.58020000
C       -0.38100000       0.00560000       0.32000000
C       -0.78510000      -1.15540000       1.16940000
C       -1.38710000      -1.02560000      -0.24090000
C       -2.86260000      -0.70950000      -0.48110000
C       -3.67420000       0.05270000       0.53670000
O       -3.27320000       0.67210000       1.49490000
C       -0.86350000      -1.92000000      -1.23920000
N       -0.44500000      -2.63170000      -2.05110000
H       -1.53210000       1.29390000       1.14780000
H        0.60100000      -0.03370000      -0.13970000
H       -0.07810000      -1.96060000       1.33250000
H       -1.45900000      -0.96400000       1.99530000
H       -2.97750000      -0.14600000      -1.42130000
H       -3.41270000      -1.64390000      -0.65960000
H       -4.76340000       0.01490000       0.32410000
