19
Properties=species:S:1:pos:R:3 gdb_38063=T pbc="F F F"
C        0.00430000       1.50420000       0.06050000
C        1.32530000       0.77180000      -0.09670000
C        2.05850000       0.53250000       1.17980000
C        1.36150000      -0.25170000       2.00690000
C        0.06930000      -0.72960000       1.39390000
C       -0.19500000      -2.26210000       1.36850000
O       -1.42230000      -2.12350000       2.10540000
C       -1.22150000      -0.70630000       2.26190000
C        0.02880000      -0.00350000       0.05220000
H       -0.17350000       2.02620000       0.99540000
H       -0.40840000       1.99070000      -0.81750000
H        1.86100000       0.84570000      -1.03630000
H        3.01750000       0.98630000       1.40330000
H        1.64840000      -0.52010000       3.01800000
H       -0.35430000      -2.69550000       0.37240000
H        0.54540000      -2.86790000       1.90730000
H       -1.07110000      -0.42740000       3.31330000
H       -2.05110000      -0.11850000       1.85000000
H       -0.42090000      -0.51160000      -0.79350000
