21
Properties=species:S:1:pos:R:3 gdb_59844=T pbc="F F F"
C        0.22380000       1.73510000      -0.16660000
C        0.07070000       0.21240000      -0.04210000
C        0.67860000      -0.50350000      -1.25500000
C        0.69680000      -0.31140000       1.25730000
C       -0.04810000       0.06880000       2.51720000
O       -1.13090000       0.60950000       2.54090000
C        0.64290000      -0.29570000       3.85860000
C       -0.13240000       0.02870000       5.11140000
O        1.73880000      -0.80600000       3.85020000
H        1.28270000       2.01970000      -0.20140000
H       -0.24580000       2.09820000      -1.08640000
H       -0.24390000       2.25320000       0.67420000
H       -1.00180000      -0.01500000      -0.00400000
H        1.75660000      -0.31520000      -1.32490000
H        0.53340000      -1.58750000      -1.19700000
H        0.22080000      -0.15290000      -2.18560000
H        0.75240000      -1.41030000       1.25400000
H        1.74180000       0.00600000       1.36610000
H       -1.09480000      -0.49310000       5.10240000
H        0.44800000      -0.25880000       5.98820000
H       -0.36850000       1.09700000       5.14030000
