24
Properties=species:S:1:pos:R:3 gdb_118127=T pbc="F F F"
C        0.21770000       1.08240000      -0.62770000
C        0.06190000      -0.22540000       0.13100000
O       -1.16790000      -0.81670000      -0.24870000
C       -1.43070000      -2.08980000       0.32920000
C       -1.92120000      -1.95730000       1.77740000
C       -2.47180000      -2.82950000      -0.50390000
C       -3.26080000      -2.15200000      -1.57230000
N       -2.30510000      -3.20300000      -1.90690000
C       -1.09140000      -2.83010000      -2.62340000
H        1.15540000       1.57330000      -0.35010000
H        0.22490000       0.90630000      -1.70720000
H       -0.60960000       1.75970000      -0.39730000
H        0.89580000      -0.90920000      -0.09920000
H        0.08880000      -0.03680000       1.21490000
H       -0.49620000      -2.67810000       0.32500000
H       -2.86210000      -1.39940000       1.80640000
H       -2.08800000      -2.94430000       2.21960000
H       -1.18990000      -1.43500000       2.39970000
H       -2.96340000      -3.61070000       0.07500000
H       -4.30990000      -2.39480000      -1.72400000
H       -2.98400000      -1.12420000      -1.79190000
H       -0.71870000      -1.82580000      -2.38700000
H       -0.30460000      -3.55900000      -2.39950000
H       -1.29510000      -2.88400000      -3.69790000
