17
Properties=species:S:1:pos:R:3 gdb_28894=T pbc="F F F"
C        0.05830000       1.50900000       0.00990000
C        0.06740000      -0.00220000       0.00180000
C        0.05610000      -0.72390000      -1.20350000
O        0.08100000      -0.10400000      -2.42070000
C        0.00530000      -2.11670000      -1.21770000
C       -0.01860000      -2.80800000      -0.01310000
C        0.01960000      -2.13000000       1.19860000
C        0.07030000      -0.73710000       1.19910000
O        0.10950000      -0.13070000       2.42270000
H        1.06280000       1.95270000       0.00490000
H       -0.48460000       1.91520000      -0.85140000
H       -0.47180000       1.90610000       0.88340000
H        0.23290000       0.83780000      -2.30220000
H       -0.00800000      -2.62780000      -2.17240000
H       -0.05600000      -3.89230000      -0.01890000
H        0.01750000      -2.65150000       2.14770000
H        0.26060000       0.81230000       2.31290000
