21
Properties=species:S:1:pos:R:3 gdb_109312=T pbc="F F F"
C        0.14870000       1.63940000       0.08820000
C       -0.03260000       0.11660000      -0.05870000
C        0.67910000      -0.45060000      -1.25390000
C        1.92710000      -0.91670000      -1.31720000
C        2.25060000      -1.35480000      -2.71620000
O        1.08520000      -1.04050000      -3.47800000
C        0.07410000      -0.56950000      -2.61010000
C       -1.33060000      -1.06630000      -2.86510000
C       -0.94690000       0.35990000      -3.20790000
H        1.20650000       1.89050000       0.21070000
H       -0.21770000       2.17590000      -0.79170000
H       -0.39530000       2.01100000       0.96230000
H        0.34020000      -0.37470000       0.84660000
H       -1.10290000      -0.11620000      -0.11520000
H        2.62750000      -0.99180000      -0.49450000
H        3.11660000      -0.82710000      -3.14460000
H        2.46590000      -2.43440000      -2.78130000
H       -1.44140000      -1.76550000      -3.68610000
H       -1.99160000      -1.24060000      -2.02250000
H       -1.34850000       1.16470000      -2.60180000
H       -0.81050000       0.60350000      -4.25560000
