22
Properties=species:S:1:pos:R:3 gdb_107173=T pbc="F F F"
C       -0.62400000       0.62750000      -0.06080000
C       -0.15450000      -0.82600000      -0.20650000
C        0.67000000      -1.02850000      -1.44360000
C        0.10680000      -1.39090000      -2.79220000
C        1.15950000      -2.26810000      -2.15830000
C        2.56040000      -1.64140000      -2.12930000
C        2.75150000      -0.28290000      -2.69010000
C        2.23730000       0.36690000      -3.97060000
N        2.06890000      -0.42150000      -1.37510000
H        0.23610000       1.30400000      -0.05360000
H       -1.27510000       0.91710000      -0.89230000
H       -1.17860000       0.77260000       0.87120000
H        0.44520000      -1.10580000       0.66790000
H       -1.01560000      -1.50450000      -0.23580000
H       -0.88970000      -1.81860000      -2.71110000
H        0.25550000      -0.83600000      -3.70450000
H        0.98660000      -3.30970000      -1.92010000
H        3.40240000      -2.21070000      -1.74290000
H        3.75560000       0.07030000      -2.45390000
H        1.36860000       1.00320000      -3.78300000
H        3.02250000       1.00640000      -4.38360000
H        1.97400000      -0.36130000      -4.74150000
