17
Properties=species:S:1:pos:R:3 gdb_43177=T pbc="F F F"
O        0.00370000       0.05890000       0.00400000
C       -0.01770000       1.25780000      -0.00650000
C       -1.20150000       2.21990000       0.02620000
C       -1.25430000       2.77890000       1.46430000
C        0.06770000       3.50870000       1.74820000
O        1.21540000       2.76750000       1.32480000
C        1.14440000       2.26310000      -0.01490000
C        0.61600000       3.27200000      -1.02850000
O       -0.82480000       3.24760000      -0.89740000
H       -2.14320000       1.77430000      -0.29800000
H       -2.09400000       3.47370000       1.57280000
H       -1.40430000       1.95070000       2.16620000
H        0.04950000       4.49210000       1.26060000
H        0.20910000       3.67030000       2.81950000
H        2.11840000       1.83660000      -0.25070000
H        0.97850000       4.28900000      -0.84680000
H        0.89610000       2.97430000      -2.04710000
