18
Properties=species:S:1:pos:R:3 gdb_38238=T pbc="F F F"
C       -0.02690000       1.61160000       0.15400000
C        1.46470000       1.21860000       0.00840000
C        1.17470000       0.04880000       1.01970000
C       -0.01190000       0.05060000       0.02020000
C       -1.17530000      -0.81460000      -0.34570000
O       -1.58710000      -0.45180000      -1.69390000
C       -0.73680000       0.19780000      -2.53370000
N        0.46730000       0.57700000      -2.38240000
C        1.03110000       0.20790000      -1.10380000
H       -0.33600000       2.00310000       1.12690000
H       -0.46700000       2.17950000      -0.66550000
H        2.32840000       1.88380000       0.01220000
H        1.84610000      -0.81410000       0.98410000
H        0.95870000       0.35000000       2.04760000
H       -0.90250000      -1.87680000      -0.35080000
H       -2.06620000      -0.68420000       0.27570000
H       -1.26280000       0.39070000      -3.46760000
H        1.72860000      -0.62760000      -1.23600000
