16
Properties=species:S:1:pos:R:3 gdb_8602=T pbc="F F F"
O        0.28420000       1.37270000      -0.28700000
C        0.08460000       0.01720000      -0.04730000
C        0.17320000      -0.46430000       1.48380000
C       -1.35150000      -0.50870000       1.43100000
C       -2.82400000      -0.97310000       1.54470000
C       -2.67770000       0.12170000       0.40900000
O       -1.86720000       0.91490000       1.34220000
C       -1.39240000      -0.57920000      -0.09870000
H       -0.39220000       1.81800000       0.24350000
H        0.76450000      -0.53020000      -0.70450000
H        0.62480000      -1.45630000       1.56610000
H        0.63030000       0.22350000       2.19890000
H       -3.03920000      -2.00080000       1.24320000
H       -3.39250000      -0.65190000       2.41920000
H       -3.48110000       0.63900000      -0.12220000
H       -1.49010000      -1.54980000      -0.58810000
