21
Properties=species:S:1:pos:R:3 gdb_61258=T pbc="F F F"
C       -0.17990000       1.49760000       0.07720000
C        0.01870000      -0.01990000      -0.01140000
C        0.73990000      -0.42230000      -1.32290000
C       -0.00480000      -0.08230000      -2.52900000
C       -0.63920000       0.19930000      -3.51070000
C        0.79280000      -0.55040000       1.19330000
C        0.09970000      -0.50520000       2.57490000
O        0.26280000      -1.92550000       2.75740000
C        0.82090000      -2.07820000       1.43780000
H        0.78550000       2.01770000       0.09900000
H       -0.74170000       1.86810000      -0.78410000
H       -0.72770000       1.77270000       0.98400000
H       -0.96920000      -0.50060000      -0.01960000
H        1.72540000       0.06320000      -1.35200000
H        0.93330000      -1.50280000      -1.31570000
H       -1.18960000       0.44440000      -4.38500000
H        1.79330000      -0.10540000       1.21440000
H        0.60250000       0.07070000       3.36070000
H       -0.96030000      -0.21540000       2.54650000
H        0.16070000      -2.66190000       0.77980000
H        1.80700000      -2.55690000       1.46230000
