16
Properties=species:S:1:pos:R:3 gdb_13593=T pbc="F F F"
C        0.29720000       1.50620000      -0.46290000
C        0.03550000       0.09250000      -0.01920000
O        1.14630000      -0.78180000       0.10350000
C        0.44410000      -0.46630000       1.30130000
C        1.15000000       0.36310000       2.32710000
O        2.08960000       1.09080000       2.08220000
C        0.62450000       0.27160000       3.75290000
O        1.29400000       1.15460000       4.59720000
H        1.17040000       1.91960000       0.04210000
H        0.47480000       1.52170000      -1.54320000
H       -0.57570000       2.13500000      -0.25860000
H       -0.84600000      -0.38060000      -0.45810000
H       -0.15710000      -1.28030000       1.70960000
H       -0.46030000       0.47260000       3.74170000
H        0.73620000      -0.77630000       4.08440000
H        1.98710000       1.55410000       4.04650000
