10
Properties=species:S:1:pos:R:3 gdb_79=T pbc="F F F"
N       -0.08120000       1.31810000       0.01280000
C        0.05440000      -0.04480000       0.08160000
O        1.12160000      -0.59780000       0.20940000
C       -1.28690000      -0.79010000       0.06180000
O       -1.04610000      -2.13950000      -0.23960000
H        0.76620000       1.85990000      -0.04480000
H       -0.93020000       1.74570000      -0.31570000
H       -1.74560000      -0.65520000       1.05530000
H       -1.96030000      -0.31150000      -0.67030000
H       -1.85640000      -2.63020000      -0.07630000
