14
Properties=species:S:1:pos:R:3 gdb_21180=T pbc="F F F"
C        0.05860000       1.44990000       0.06140000
N       -0.06250000       0.01610000      -0.07030000
C       -1.23730000      -0.66510000      -0.01970000
C       -2.50650000      -0.04290000       0.00490000
N       -3.60610000      -0.76990000       0.02840000
C       -3.42370000      -2.09790000       0.03080000
N       -2.25250000      -2.72740000       0.02070000
N       -1.14290000      -2.00700000      -0.00200000
H        1.11440000       1.71830000       0.00100000
H       -0.46420000       1.97290000      -0.74860000
H       -0.33420000       1.82180000       1.01830000
H        0.75950000      -0.56110000       0.01200000
H       -2.61420000       1.03850000       0.00670000
H       -4.30610000      -2.72830000       0.04720000
