19
Properties=species:S:1:pos:R:3 gdb_122795=T pbc="F F F"
C       -0.26880000       1.51450000       0.28650000
C       -0.09650000       0.02860000       0.02320000
O       -1.36390000      -0.59440000       0.10580000
C       -1.31500000      -1.98290000      -0.12450000
C       -2.73300000      -2.52050000      -0.00680000
C       -2.82260000      -4.00610000      -0.23270000
O       -1.88480000      -4.72920000      -0.48390000
C       -4.21520000      -4.64760000      -0.13530000
O       -5.21770000      -4.03050000       0.10820000
H        0.69680000       2.02570000       0.22970000
H       -0.94180000       1.95990000      -0.45160000
H       -0.69250000       1.68180000       1.28090000
H        0.34420000      -0.14080000      -0.97390000
H        0.59370000      -0.41890000       0.75840000
H       -0.90530000      -2.20490000      -1.12280000
H       -0.65660000      -2.48260000       0.60400000
H       -3.15710000      -2.29070000       0.97910000
H       -3.40140000      -2.01800000      -0.71760000
H       -4.19340000      -5.74350000      -0.31460000
