15
Properties=species:S:1:pos:R:3 gdb_125642=T pbc="F F F"
C       -0.01670000       1.51050000      -0.09570000
C        0.00410000       0.02150000       0.02620000
N       -0.00590000      -0.74040000      -1.05850000
N        0.01820000      -2.05020000      -0.62770000
C        0.04380000      -2.09200000       0.72180000
C        0.03630000      -0.78630000       1.20510000
C        0.06120000      -0.95420000       2.61750000
N        0.08230000      -2.23440000       2.95450000
N        0.07130000      -2.94060000       1.77270000
H        0.86910000       1.95870000       0.36820000
H       -0.04120000       1.79740000      -1.14870000
H       -0.89390000       1.93700000       0.40340000
H        0.01600000      -2.78670000      -1.30890000
H        0.06550000      -0.20930000       3.39940000
H        0.08350000      -3.94360000       1.80620000
