20
Properties=species:S:1:pos:R:3 gdb_117371=T pbc="F F F"
C        2.60210000       1.36940000       0.17580000
C        2.62690000      -0.14290000       0.29540000
O        2.21450000      -0.68340000      -0.97020000
C        2.18890000      -2.02750000      -1.07180000
N        2.48440000      -2.77920000      -0.09390000
C        1.79240000      -2.44000000      -2.48040000
C        0.94160000      -3.68670000      -2.50830000
C        1.08670000      -4.70550000      -3.55450000
O        1.60930000      -4.92620000      -2.24280000
H        3.28480000       1.71130000      -0.60750000
H        1.59680000       1.72660000      -0.06570000
H        2.91000000       1.82240000       1.12300000
H        3.62530000      -0.52220000       0.53710000
H        1.94980000      -0.50590000       1.07570000
H        2.42580000      -3.75810000      -0.36780000
H        1.25590000      -1.61220000      -2.95440000
H        2.70540000      -2.60950000      -3.06310000
H       -0.02650000      -3.60000000      -2.01350000
H        0.23590000      -5.32760000      -3.82730000
H        1.83160000      -4.56770000      -4.33720000
