19
Properties=species:S:1:pos:R:3 gdb_103717=T pbc="F F F"
C        0.24680000       1.24670000       0.38140000
N       -0.25490000       0.06130000      -0.30370000
C        0.58270000      -0.42810000      -1.36440000
C        0.41080000       0.30750000      -2.67830000
C        1.94790000      -1.02620000      -1.04790000
C        0.77460000      -1.93840000      -1.38670000
O        0.15440000      -2.64310000      -0.34920000
C        0.78130000      -2.64480000      -2.65060000
N        0.80040000      -3.23060000      -3.64790000
H        1.26420000       1.13370000       0.79460000
H        0.26090000       2.10200000      -0.30190000
H       -0.43170000       1.49470000       1.20190000
H       -0.43950000      -0.68550000       0.35520000
H        0.71400000       1.35340000      -2.56720000
H        1.01730000      -0.13210000      -3.47360000
H       -0.63870000       0.28720000      -2.98350000
H        2.75260000      -0.93890000      -1.76940000
H        2.25490000      -1.05350000      -0.00760000
H        0.74210000      -3.35380000      -0.06790000
