17
Properties=species:S:1:pos:R:3 gdb_117523=T pbc="F F F"
C       -0.02260000       2.04330000       0.54560000
N        0.16620000       0.55230000       0.75060000
H        0.83270000       0.45270000       1.56780000
H       -0.74930000       0.19480000       1.14570000
C        0.72660000      -1.23760000      -1.51460000
C       -0.09050000      -2.29670000      -1.67480000
C       -1.21240000      -2.54650000      -0.76990000
N       -2.12620000      -2.74030000      -0.01860000
C       -4.30490000      -3.21510000       1.75380000
O       -4.65880000      -4.20720000       1.12430000
O       -3.99500000      -2.23170000       2.42040000
H       -0.35330000       2.58060000       1.45700000
H        0.93420000       2.47780000       0.20870000
H       -0.77640000       2.19680000      -0.24560000
H        0.57990000      -0.49790000      -0.67670000
H        1.55840000      -1.08860000      -2.21840000
H        0.03510000      -3.03000000      -2.48670000
