21
Properties=species:S:1:pos:R:3 gdb_84858=T pbc="F F F"
O        0.20460000       1.31210000      -0.30470000
C        0.06650000      -0.05390000       0.07380000
C        0.59090000      -0.32210000       1.46310000
C        0.26470000      -1.42390000       2.13930000
C       -0.64550000      -2.46980000       1.54620000
C       -1.75480000      -1.86360000       0.67200000
C       -2.86350000      -1.08910000       1.44590000
C       -2.44980000       0.23140000       0.74410000
C       -1.38130000      -0.54210000      -0.08780000
H       -0.36600000       1.82970000       0.27410000
H        0.69600000      -0.59240000      -0.64900000
H        1.28120000       0.41410000       1.86680000
H        0.68520000      -1.60780000       3.12460000
H       -0.04340000      -3.16530000       0.94260000
H       -1.09930000      -3.08040000       2.33600000
H       -2.15620000      -2.63720000       0.01230000
H       -3.88050000      -1.42150000       1.22420000
H       -2.73400000      -1.08840000       2.53200000
H       -3.22980000       0.71620000       0.15320000
H       -2.03370000       0.97460000       1.43240000
H       -1.62350000      -0.57180000      -1.15270000
