15
Properties=species:S:1:pos:R:3 gdb_35208=T pbc="F F F"
N       -0.08270000      -1.14730000       0.00060000
C       -0.04350000       0.00800000       0.00060000
C        0.01050000       1.45170000      -0.03960000
O        0.59690000       2.10550000       1.09840000
C        1.31250000       2.14890000      -0.11460000
C        2.75790000       1.66690000      -0.23290000
N        3.16540000       2.98710000      -0.84850000
C        2.37790000       3.10890000      -2.08350000
C        1.70740000       3.42820000      -0.80220000
H       -0.87870000       1.93250000      -0.44230000
H        3.22390000       1.54350000       0.74640000
H        2.96370000       0.79400000      -0.85900000
H        2.68520000       3.94440000      -2.70460000
H        2.10180000       2.20990000      -2.63120000
H        1.40420000       4.42470000      -0.50120000
