22
Properties=species:S:1:pos:R:3 gdb_107646=T pbc="F F F"
C        0.34580000       1.47290000      -0.36340000
C       -0.14600000       0.09090000       0.08860000
C        0.57360000      -0.44820000       1.31610000
N        1.95830000      -0.96420000       1.13710000
C        0.84900000      -1.90460000       1.42380000
C        0.86570000      -2.56760000       2.79670000
C       -0.09790000      -1.88600000       3.78810000
C       -0.01040000      -0.38050000       3.71460000
C        0.31980000       0.27020000       2.59940000
H        1.42040000       1.46240000      -0.57390000
H       -0.17200000       1.79000000      -1.27370000
H        0.16610000       2.23600000       0.39990000
H       -1.22310000       0.13480000       0.29370000
H       -0.01710000      -0.62590000      -0.73300000
H        2.17440000      -0.99060000       0.14100000
H        0.50860000      -2.52350000       0.59620000
H        0.62010000      -3.63100000       2.70650000
H        1.88480000      -2.50220000       3.19020000
H       -1.13290000      -2.20150000       3.58940000
H        0.12090000      -2.22410000       4.80690000
H       -0.22610000       0.17880000       4.62170000
H        0.38970000       1.35460000       2.59560000
