15
Properties=species:S:1:pos:R:3 gdb_10093=T pbc="F F F"
C       -2.06260000       0.37160000      -1.32850000
N       -1.15330000      -0.68600000      -0.92220000
C        0.09170000      -0.57470000      -1.07690000
C        1.01460000      -1.69030000      -0.63300000
O        1.76500000      -1.35290000       0.52970000
O        0.64890000       0.54030000      -1.69690000
C        1.94410000       0.93720000      -1.48170000
O        2.41920000       1.81950000      -2.12590000
H       -2.72440000       0.59900000      -0.48630000
H       -1.57310000       1.28960000      -1.66640000
H       -2.69940000      -0.00970000      -2.13440000
H        0.39010000      -2.57420000      -0.47250000
H        1.75050000      -1.91490000      -1.41180000
H        1.13820000      -1.22290000       1.25040000
H        2.43930000       0.38770000      -0.67000000
