21
Properties=species:S:1:pos:R:3 gdb_115886=T pbc="F F F"
C        0.01870000       1.33140000      -0.19500000
O       -0.00800000      -0.03740000       0.14350000
C       -1.30510000      -0.60000000       0.14550000
C       -1.86860000      -0.85210000      -1.28200000
O       -2.59470000      -2.07450000      -1.23830000
C       -2.10090000      -2.83090000      -0.16050000
C       -0.61540000      -3.05390000      -0.05360000
C       -1.30050000      -1.97920000       0.78200000
C       -1.34810000      -2.07710000       2.28600000
H        1.05340000       1.66880000      -0.09760000
H       -0.31260000       1.51520000      -1.22830000
H       -0.61460000       1.92870000       0.47990000
H       -1.98370000       0.05480000       0.71730000
H       -2.55070000      -0.07350000      -1.63450000
H       -1.02210000      -0.91390000      -1.98150000
H       -2.80810000      -3.58630000       0.16250000
H       -0.28400000      -3.94070000       0.47670000
H        0.02900000      -2.75610000      -0.87270000
H       -0.44260000      -1.65040000       2.73110000
H       -2.21020000      -1.53640000       2.69440000
H       -1.42050000      -3.11880000       2.61420000
