18
Properties=species:S:1:pos:R:3 gdb_52962=T pbc="F F F"
C       -0.01870000       1.47710000       0.07280000
C       -0.01920000       0.02350000       0.01480000
C       -0.02640000      -1.18110000      -0.01840000
C       -0.00390000      -2.60410000      -0.10520000
C        0.74140000      -3.42460000      -1.17730000
C       -0.43470000      -4.46230000      -1.14400000
O       -0.15350000      -5.77240000      -0.69810000
C       -1.12850000      -3.62480000      -0.07100000
N       -0.26180000      -3.43080000       1.07800000
H        0.99770000       1.87920000      -0.00460000
H       -0.61000000       1.91120000      -0.74150000
H       -0.44410000       1.83320000       1.01750000
H        0.82580000      -2.91300000      -2.13830000
H        1.72490000      -3.79810000      -0.87380000
H       -0.99110000      -4.46870000      -2.09010000
H        0.37740000      -6.21370000      -1.36890000
H       -2.19530000      -3.48090000       0.05310000
H        0.40910000      -4.19210000       1.17350000
