19
Properties=species:S:1:pos:R:3 gdb_55696=T pbc="F F F"
C       -0.03030000       1.64980000       0.15200000
C       -0.02190000       0.12860000       0.03270000
C        1.10340000      -0.43040000      -0.87920000
O        1.85210000      -0.88670000       0.27290000
C        0.75980000      -0.59260000       1.15540000
N       -1.36480000      -0.39690000      -0.17450000
C       -1.96880000      -0.25740000      -1.40800000
N       -3.15880000      -0.96220000      -1.53650000
O       -1.48940000       0.40080000      -2.31420000
H        0.98390000       2.01930000       0.33110000
H       -0.40900000       2.09330000      -0.77080000
H       -0.66760000       1.96430000       0.98480000
H        0.78920000      -1.25980000      -1.52290000
H        1.66200000       0.30090000      -1.47070000
H        1.06360000       0.02350000       2.00990000
H        0.27380000      -1.50670000       1.53270000
H       -1.60330000      -1.22370000       0.35210000
H       -3.72480000      -1.07760000      -0.70910000
H       -3.68070000      -0.69020000      -2.35590000
