16
Properties=species:S:1:pos:R:3 gdb_126101=T pbc="F F F"
C        0.08170000       1.51950000       0.00830000
C       -0.02380000      -0.01680000       0.00340000
C       -1.39970000      -0.49440000       0.01320000
C       -2.54460000      -0.87640000       0.02130000
C       -3.87870000      -1.32090000       0.03060000
C       -5.07780000      -0.66200000       0.04290000
C       -6.03170000      -1.70740000       0.04690000
N       -5.46940000      -2.89270000       0.03820000
O       -4.10430000      -2.65860000       0.02800000
H        1.13180000       1.82410000       0.00060000
H       -0.40810000       1.94610000      -0.87090000
H       -0.39320000       1.93940000       0.89880000
H        0.48880000      -0.42110000      -0.87900000
H        0.50360000      -0.42770000       0.87400000
H       -5.23940000       0.40200000       0.04800000
H       -7.11040000      -1.63910000       0.05600000
