18
Properties=species:S:1:pos:R:3 gdb_115175=T pbc="F F F"
C        0.47080000       0.87020000       0.10330000
O       -0.20620000      -0.11910000      -0.65750000
C       -1.46430000      -0.49460000      -0.13000000
C       -2.38700000      -0.90440000      -1.28800000
O       -2.20830000      -2.31880000      -1.48460000
C       -1.59930000      -2.87690000      -0.40840000
O       -1.29630000      -4.03400000      -0.35480000
C       -1.37520000      -1.80670000       0.67210000
N       -0.15970000      -1.96090000       1.45040000
H        1.41660000       1.06600000      -0.40700000
H       -0.11000000       1.80370000       0.14330000
H        0.67080000       0.53170000       1.12640000
H       -1.89570000       0.32850000       0.45100000
H       -3.44000000      -0.71010000      -1.05640000
H       -2.11280000      -0.39370000      -2.21220000
H       -2.24030000      -1.86040000       1.34750000
H       -0.14690000      -2.90260000       1.83490000
H        0.62830000      -1.91680000       0.80910000
