23
Properties=species:S:1:pos:R:3 gdb_121397=T pbc="F F F"
C       -0.08510000       1.61140000       0.05750000
C       -0.00300000       0.08400000      -0.01360000
C        0.75980000      -0.52400000       1.17140000
C        0.79880000      -2.05720000       1.19260000
C        1.61490000      -2.65990000       0.03910000
O        1.71390000      -4.07230000       0.16690000
C        2.27370000      -4.43240000       1.40030000
O        1.50890000      -3.99910000       2.49240000
C        1.39730000      -2.58270000       2.50530000
H        0.91350000       2.06250000       0.05650000
H       -0.63600000       2.02170000      -0.79450000
H       -0.59300000       1.93770000       0.97190000
H       -1.01620000      -0.33760000      -0.04300000
H        0.47490000      -0.20710000      -0.95700000
H        1.78710000      -0.13200000       1.18250000
H        0.29660000      -0.17300000       2.10440000
H       -0.22320000      -2.45050000       1.11630000
H        1.15240000      -2.47310000      -0.93270000
H        2.62520000      -2.21170000       0.02850000
H        2.29780000      -5.52330000       1.43660000
H        3.30090000      -4.02270000       1.47800000
H        2.39220000      -2.12990000       2.66780000
H        0.76700000      -2.32660000       3.36170000
