17
Properties=species:S:1:pos:R:3 gdb_133833=T pbc="F F F"
O        1.63230000       0.33700000       1.28850000
C        2.61670000      -0.03650000       0.40370000
C        4.00330000       0.47980000       0.54520000
C        3.13190000       0.71840000      -0.80790000
C        4.84670000      -0.22780000      -1.26650000
C        3.43680000      -0.61790000      -1.51660000
C        2.87720000      -1.41580000      -0.26350000
C        4.15160000      -1.93230000       0.41740000
C        4.97590000      -0.64200000       0.20440000
H        0.78410000       0.29670000       0.83200000
H        4.23290000       1.37090000       1.11000000
H        2.94290000       1.70450000      -1.20370000
H        3.06620000      -0.76700000      -2.52460000
H        2.02980000      -2.08450000      -0.40220000
H        4.59140000      -2.79870000      -0.08760000
H        3.99870000      -2.17250000       1.47540000
H        5.96790000      -0.57740000       0.64320000
