23
Properties=species:S:1:pos:R:3 gdb_115328=T pbc="F F F"
C        0.42660000       1.72130000      -0.18970000
C        0.11710000       0.23070000       0.00960000
C        0.71430000      -0.64630000      -1.10840000
O        0.50010000      -0.05860000      -2.38120000
C        2.20040000      -0.81700000      -0.71830000
C        2.23540000      -0.70400000       0.82890000
C        0.77330000      -0.40370000       1.25810000
C        0.65410000       0.39390000       2.54660000
O        1.19030000      -0.40470000       3.59540000
H        1.50140000       1.92860000      -0.15750000
H        0.05680000       2.05370000      -1.16180000
H       -0.05210000       2.32810000       0.58490000
H       -0.97160000       0.10830000       0.04080000
H        0.21680000      -1.62910000      -1.06450000
H        0.90940000      -0.62420000      -3.04270000
H        2.61210000      -1.76280000      -1.08420000
H        2.77480000      -0.01290000      -1.18950000
H        2.60940000      -1.60850000       1.31230000
H        2.89850000       0.10900000       1.14290000
H        0.27010000      -1.36210000       1.44330000
H        1.20430000       1.34340000       2.45780000
H       -0.40310000       0.64160000       2.73910000
H        1.17790000       0.11470000       4.40440000
