17
Properties=species:S:1:pos:R:3 gdb_88712=T pbc="F F F"
C       -0.33920000       1.43470000       0.12860000
C       -0.07130000      -0.04740000       0.17510000
O        1.25230000      -0.49880000      -0.13420000
C        0.75360000      -0.73140000       1.18780000
C        1.46150000      -0.00580000       2.28370000
O        0.87390000      -0.08880000       3.58070000
C        2.14890000      -0.72420000       3.38390000
C        2.19720000      -2.15880000       3.46630000
C        2.27200000      -3.35540000       3.55160000
H        0.45760000       2.01210000       0.60110000
H       -0.42650000       1.76710000      -0.91090000
H       -1.28270000       1.66360000       0.63500000
H       -0.85020000      -0.65900000      -0.28520000
H        0.52500000      -1.77190000       1.41680000
H        1.85760000       0.97350000       2.01810000
H        2.97610000      -0.20860000       3.87110000
H        2.33290000      -4.41330000       3.62620000
