21
Properties=species:S:1:pos:R:3 gdb_91816=T pbc="F F F"
C       -0.11110000       1.52760000       0.04310000
C       -0.01210000       0.01340000       0.00440000
C       -0.82290000      -0.77840000       1.01330000
C        0.68540000      -0.71310000       1.13310000
C        1.53590000      -1.93840000       0.80380000
C        2.19560000      -1.83890000      -0.57660000
O        2.74090000      -3.12470000      -0.86100000
C        1.18970000      -1.40560000      -1.62190000
C        0.18460000      -0.57450000      -1.35010000
H        0.79520000       1.99570000      -0.35720000
H       -0.95990000       1.88300000      -0.55340000
H       -0.25210000       1.88630000       1.06790000
H       -1.42470000      -0.22510000       1.72790000
H       -1.25560000      -1.71990000       0.69130000
H        1.06820000      -0.08220000       1.93000000
H        2.30800000      -2.08690000       1.56460000
H        0.92540000      -2.84760000       0.79500000
H        3.00950000      -1.09380000      -0.53210000
H        3.22630000      -3.06680000      -1.68990000
H        1.32100000      -1.81220000      -2.62270000
H       -0.51900000      -0.28240000      -2.12810000
