22
Properties=species:S:1:pos:R:3 gdb_95216=T pbc="F F F"
C       -0.01280000       1.52350000      -0.13360000
C        0.05300000       0.00720000      -0.01820000
O        0.65660000      -0.47860000      -1.21390000
C        0.41220000      -1.85380000      -1.42190000
C        0.80030000      -2.70250000      -0.22900000
N        2.15440000      -2.48820000       0.29200000
C        0.99510000      -2.03650000       1.08840000
C        0.80210000      -0.52240000       1.22750000
C        2.13790000       0.18150000       1.50170000
H        0.98220000       1.94510000      -0.29660000
H       -0.64260000       1.80600000      -0.98130000
H       -0.43370000       1.96470000       0.77540000
H       -0.97850000      -0.38550000       0.03270000
H       -0.65740000      -2.02240000      -1.64130000
H        0.99070000      -2.14060000      -2.30640000
H        0.40330000      -3.71630000      -0.24090000
H        2.52490000      -3.35300000       0.67600000
H        0.76020000      -2.61930000       1.97640000
H        0.13690000      -0.35820000       2.08550000
H        2.79440000       0.09940000       0.63300000
H        1.99400000       1.23820000       1.74300000
H        2.64870000      -0.28740000       2.34880000
