20
Properties=species:S:1:pos:R:3 gdb_9284=T pbc="F F F"
C        0.16790000       1.48250000       0.06420000
C        0.01650000      -0.03980000       0.03070000
C       -1.43820000      -0.50880000      -0.02130000
C       -1.55190000      -2.02880000      -0.15460000
O       -2.06410000      -0.03920000       1.17360000
C       -3.46590000      -0.02090000       1.16140000
C       -3.93890000       0.75190000       2.38170000
O       -5.09260000       0.84960000       2.70440000
H        1.22130000       1.77150000       0.12410000
H       -0.25220000       1.94240000      -0.83760000
H       -0.35190000       1.90250000       0.92860000
H        0.53880000      -0.45240000      -0.84050000
H        0.48550000      -0.48380000       0.91760000
H       -1.93650000      -0.03270000      -0.88420000
H       -1.07320000      -2.52160000       0.69770000
H       -2.59460000      -2.35670000      -0.19880000
H       -1.06050000      -2.36830000      -1.07160000
H       -3.86200000       0.48190000       0.26140000
H       -3.91540000      -1.02560000       1.19040000
H       -3.11200000       1.23100000       2.95130000
