17
Properties=species:S:1:pos:R:3 gdb_106242=T pbc="F F F"
C        0.23860000       1.75150000       0.36350000
C        0.05380000       0.25270000       0.42660000
C        1.02520000      -0.77960000      -0.19530000
C        2.43300000      -0.36510000       0.12090000
O        3.47680000      -0.25210000      -0.43220000
O        2.17900000      -0.16780000       1.48130000
C        0.82220000      -0.67100000       1.30140000
C        0.33610000      -1.65560000       2.32880000
O       -0.95880000      -2.13790000       2.02140000
H        1.26190000       2.03700000       0.61610000
H        0.00990000       2.12910000      -0.63750000
H       -0.43270000       2.24860000       1.07180000
H       -0.96800000      -0.09240000       0.27510000
H        0.71400000      -1.52240000      -0.91500000
H        1.00510000      -2.52220000       2.34510000
H        0.38180000      -1.19110000       3.32490000
H       -1.59830000      -1.47050000       2.28840000
