20
Properties=species:S:1:pos:R:3 gdb_22976=T pbc="F F F"
C       -0.32230000       1.54750000      -0.05070000
C       -0.35900000       0.03760000      -0.28230000
C        0.64590000      -0.47750000      -1.27820000
N        1.43980000       0.35280000      -1.83730000
O        2.31200000      -0.30520000      -2.73260000
C        0.67840000      -1.95340000      -1.58790000
C        1.84600000      -2.79170000      -1.00710000
C        0.72660000      -3.61910000      -0.34660000
O       -0.29180000      -2.72020000      -0.84050000
H        0.65510000       1.86770000       0.31950000
H       -0.51270000       2.09460000      -0.97770000
H       -1.08170000       1.83430000       0.68270000
H       -0.20740000      -0.50290000       0.66130000
H       -1.35570000      -0.28040000      -0.61510000
H        2.82530000       0.42690000      -3.08890000
H        0.54810000      -2.09360000      -2.66870000
H        2.46550000      -3.30380000      -1.74260000
H        2.48600000      -2.24550000      -0.31320000
H        0.59680000      -4.63310000      -0.74490000
H        0.73170000      -3.66620000       0.74840000
