15
Properties=species:S:1:pos:R:3 gdb_32178=T pbc="F F F"
O        0.46570000       0.70510000       0.83830000
C       -0.06250000       0.20970000      -0.35990000
C       -1.46080000      -0.34430000      -0.19670000
N       -1.98050000      -0.28610000       1.02550000
C       -3.22130000      -0.77880000       1.16950000
C       -3.93670000      -1.32040000       0.12240000
C       -3.28290000      -1.32600000      -1.11740000
O       -3.90810000      -1.83550000      -2.18590000
N       -2.05790000      -0.84560000      -1.28420000
H       -0.22630000       0.56420000       1.50340000
H       -0.09850000       0.99620000      -1.13040000
H        0.57310000      -0.59110000      -0.76970000
H       -3.64710000      -0.73140000       2.16840000
H       -4.93600000      -1.71830000       0.23460000
H       -3.29560000      -1.74630000      -2.93100000
