14
Properties=species:S:1:pos:R:3 gdb_127807=T pbc="F F F"
C        0.07170000       1.42430000      -0.02110000
N        0.02390000      -0.01930000       0.05020000
N       -0.09310000      -0.78270000      -1.06930000
N       -0.11230000      -2.02980000      -0.75450000
N       -0.00590000      -2.08580000       0.60110000
C        0.04900000      -2.98020000       1.65450000
C        0.16760000      -2.16020000       2.75800000
N        0.18970000      -0.80960000       2.44550000
C        0.08240000      -0.83360000       1.13820000
H        1.01310000       1.79300000       0.39490000
H       -0.00320000       1.70200000      -1.07200000
H       -0.76100000       1.85870000       0.53860000
H       -0.00070000      -4.04580000       1.52420000
H        0.24010000      -2.48080000       3.78700000
