18
Properties=species:S:1:pos:R:3 gdb_59225=T pbc="F F F"
C        0.04680000       1.56010000      -0.01250000
C        0.06030000       0.03360000       0.01360000
O        0.81830000      -0.36330000       1.14270000
C       -1.36470000      -0.53290000       0.05260000
C       -1.59040000      -2.05960000       0.03790000
N       -0.90810000      -2.59040000       1.22740000
C       -2.30280000      -2.04270000       1.36210000
C       -2.14930000      -0.53170000       1.40690000
O       -2.61140000       0.32830000       2.09400000
H        1.07240000       1.93370000       0.04500000
H       -0.41080000       1.93560000      -0.93340000
H       -0.51210000       1.94880000       0.84350000
H        0.53720000      -0.33410000      -0.91390000
H        0.56720000      -1.27540000       1.35640000
H       -1.99240000      -0.04260000      -0.70080000
H       -1.80400000      -2.68480000      -0.81890000
H       -0.99360000      -3.60570000       1.23130000
H       -3.09400000      -2.66950000       1.75280000
