23
Properties=species:S:1:pos:R:3 gdb_106788=T pbc="F F F"
C        0.06510000       1.51530000      -0.34560000
C        0.01780000       0.07890000       0.19300000
C       -1.37590000      -0.51590000       0.19190000
C       -1.97880000      -1.06780000      -1.09320000
C       -1.69970000      -2.00740000       0.05640000
C       -0.65300000      -3.08620000      -0.09790000
C       -2.87910000      -2.29920000       0.99350000
C       -3.24120000      -0.94620000       1.56280000
C       -2.40670000       0.00680000       1.14490000
H        1.08850000       1.90340000      -0.34270000
H       -0.31170000       1.56020000      -1.37270000
H       -0.54620000       2.19260000       0.26000000
H        0.68180000      -0.54920000      -0.41210000
H        0.42300000       0.05720000       1.21320000
H       -3.00390000      -0.80560000      -1.33670000
H       -1.31810000      -1.15140000      -1.95250000
H        0.17060000      -2.76970000      -0.74460000
H       -0.22790000      -3.37300000       0.87120000
H       -1.08810000      -3.98790000      -0.54570000
H       -3.71990000      -2.76890000       0.46560000
H       -2.58830000      -3.00230000       1.78790000
H       -4.09270000      -0.79490000       2.21660000
H       -2.46210000       1.05350000       1.42440000
