21
Properties=species:S:1:pos:R:3 gdb_122397=T pbc="F F F"
C       -0.11650000       1.59630000      -0.18960000
C       -0.11580000       0.13560000       0.26740000
C       -1.41910000      -0.57730000      -0.06500000
O       -1.33430000      -1.91590000       0.39160000
C       -2.49230000      -2.66640000       0.16290000
C       -2.74880000      -3.17250000      -1.29870000
C       -2.89150000      -4.58500000      -0.70880000
O       -3.32910000      -5.61690000      -1.12680000
C       -2.36010000      -4.12900000       0.65810000
H        0.82830000       2.08610000       0.06220000
H       -0.25280000       1.67640000      -1.27370000
H       -0.92230000       2.16440000       0.28820000
H        0.70930000      -0.41050000      -0.20400000
H        0.04720000       0.07440000       1.34940000
H       -2.27130000      -0.06730000       0.41650000
H       -1.60240000      -0.55340000      -1.15230000
H       -3.37630000      -2.15930000       0.57600000
H       -3.60350000      -2.78570000      -1.85820000
H       -1.84460000      -3.08830000      -1.91210000
H       -1.30580000      -4.39630000       0.78860000
H       -2.92190000      -4.43950000       1.54130000
