16
Properties=species:S:1:pos:R:3 gdb_8046=T pbc="F F F"
C        0.00360000       1.46590000       0.07600000
C       -0.00630000      -0.02170000      -0.06330000
C        0.61690000      -0.94970000      -1.14070000
C        0.10840000      -1.81250000       0.03320000
O        0.68750000      -0.83470000       0.97230000
C       -1.22710000      -1.00960000       0.03520000
C       -2.03340000      -0.98670000       1.23360000
C       -2.74110000      -0.95600000       2.20520000
H        1.03170000       1.83870000       0.10580000
H       -0.51130000       1.93000000      -0.77090000
H       -0.50490000       1.76100000       0.99850000
H        0.11800000      -1.03270000      -2.11000000
H        1.70220000      -0.88590000      -1.21890000
H        0.26130000      -2.86960000       0.24660000
H       -1.83430000      -1.09740000      -0.87130000
H       -3.35140000      -0.93550000       3.07380000
