15
Properties=species:S:1:pos:R:3 gdb_45039=T pbc="F F F"
O       -0.05700000      -0.03020000       0.27030000
C       -0.07490000       1.16860000       0.12350000
C       -1.35990000       1.95820000      -0.11840000
N       -1.34540000       3.39440000       0.13690000
C       -0.81490000       3.85770000       1.40310000
C       -0.04490000       4.06970000       0.13020000
C        1.22180000       3.29940000      -0.04330000
O        2.29200000       3.81690000      -0.26160000
N        1.09580000       1.91620000       0.09210000
H       -1.62190000       1.80220000      -1.17240000
H       -2.14950000       1.49300000       0.47650000
H       -1.33210000       4.70230000       1.84840000
H       -0.41880000       3.13240000       2.11160000
H       -0.01370000       5.05430000      -0.32380000
H        1.96190000       1.38960000       0.09840000
