17
Properties=species:S:1:pos:R:3 gdb_124807=T pbc="F F F"
C       -0.13840000       1.54010000       0.20050000
C        0.01380000       0.03510000      -0.06590000
O        0.67870000      -0.22380000      -1.28600000
C        0.69730000      -0.63950000       1.09090000
N        1.88420000      -1.16860000       0.97300000
O        2.16370000      -1.63580000       2.26410000
C        1.09590000      -1.33300000       3.01650000
C        1.11560000      -1.72730000       4.44880000
N        0.15980000      -0.71760000       2.35760000
H        0.84520000       2.01040000       0.30170000
H       -0.66000000       2.00260000      -0.64080000
H       -0.70670000       1.71760000       1.11780000
H       -0.98710000      -0.40510000      -0.15860000
H        1.62590000      -0.25960000      -1.10840000
H        1.96320000      -1.26550000       4.96380000
H        0.18690000      -1.40860000       4.92120000
H        1.21930000      -2.81200000       4.54740000
