16
Properties=species:S:1:pos:R:3 gdb_37306=T pbc="F F F"
O       -0.02980000       1.43390000      -0.06390000
C        1.25880000       0.82850000      -0.00990000
C        0.03960000       0.00300000       0.00230000
C       -0.03400000      -0.70630000      -1.37830000
C       -0.84710000       0.15460000      -2.32350000
C       -0.02960000       0.99590000      -2.95460000
C        1.38770000       0.62100000      -2.68570000
C        1.98320000       0.53600000      -1.29830000
N        1.37200000      -0.65420000      -1.93980000
H        1.84790000       1.06160000       0.87390000
H       -0.39940000      -0.44610000       0.88960000
H       -0.36340000      -1.74240000      -1.27310000
H       -1.92880000       0.19850000      -2.30290000
H       -0.31190000       1.80890000      -3.61040000
H        2.09800000       0.68440000      -3.50890000
H        3.06850000       0.51410000      -1.22510000
