18
Properties=species:S:1:pos:R:3 gdb_29762=T pbc="F F F"
C       -0.01340000       1.46280000       0.00980000
N       -0.04860000       0.01560000       0.00650000
C       -0.04090000      -0.77890000      -1.11980000
C        0.01720000      -2.09680000      -0.73980000
C        0.02680000      -3.30010000      -1.62890000
C        0.05200000      -2.10360000       0.69840000
C        0.01310000      -0.78140000       1.11150000
C        0.10190000      -3.24510000       1.52990000
C        0.14630000      -4.23540000       2.21630000
H        1.00550000       1.84480000      -0.12290000
H       -0.64030000       1.85090000      -0.79700000
H       -0.40490000       1.83410000       0.95930000
H       -0.07960000      -0.33570000      -2.10290000
H        0.92450000      -3.90850000      -1.47080000
H       -0.83270000      -3.95130000      -1.43360000
H       -0.00270000      -3.01130000      -2.68340000
H        0.02490000      -0.36230000       2.10480000
H        0.18470000      -5.10260000       2.82660000
