13
Properties=species:S:1:pos:R:3 gdb_20471=T pbc="F F F"
C        0.07040000       1.53800000       0.00550000
O        1.19890000       0.66580000      -0.04120000
C       -0.09910000       0.07210000       0.01990000
C       -0.41100000      -0.67000000       1.25730000
C        0.35080000      -0.79000000       2.37870000
O       -0.26980000      -1.54850000       3.29220000
N       -1.49310000      -1.96560000       2.78070000
C       -1.56240000      -1.44450000       1.58140000
H       -0.05650000       2.09030000       0.93480000
H       -0.12870000       2.09480000      -0.90900000
H       -0.42070000      -0.40250000      -0.90770000
H        1.32510000      -0.41270000       2.64400000
H       -2.43840000      -1.63560000       0.97710000
