21
Properties=species:S:1:pos:R:3 gdb_63472=T pbc="F F F"
C       -0.11620000       1.57060000       0.32370000
C       -0.08440000       0.08220000       0.06750000
O       -1.34600000      -0.48880000      -0.17530000
C        1.09980000      -0.54680000      -0.65300000
C        0.85720000      -0.81370000       0.82580000
O        1.69790000      -0.14770000       1.73500000
C        0.39750000      -2.17230000       1.27130000
C        1.32390000      -3.08600000       2.03650000
C        0.14660000      -2.44490000       2.73100000
H        0.86650000       1.93990000       0.61980000
H       -0.43390000       2.10920000      -0.57790000
H       -0.82720000       1.79850000       1.12380000
H       -1.65500000      -0.15910000      -1.02640000
H        0.89180000      -1.35150000      -1.35030000
H        1.93340000       0.09670000      -0.91600000
H        2.58630000      -0.50230000       1.62240000
H       -0.28030000      -2.64570000       0.57180000
H        1.29040000      -4.14750000       1.81710000
H        2.31140000      -2.72130000       2.30050000
H        0.36570000      -1.64310000       3.42640000
H       -0.70190000      -3.06440000       2.99830000
