23
Properties=species:S:1:pos:R:3 gdb_53671=T pbc="F F F"
C        0.03900000       1.52350000      -0.05280000
C        0.02950000       0.06970000       0.03250000
C        0.03220000      -1.13240000       0.10560000
C       -0.00180000      -2.58870000       0.18550000
C       -1.39160000      -3.18490000      -0.12360000
C       -1.41700000      -4.70260000      -0.01650000
C       -1.28120000      -5.37340000       1.38340000
C       -2.34020000      -6.41920000       0.94230000
C       -2.77210000      -5.44630000      -0.18780000
H        0.63660000       1.87080000      -0.90320000
H       -0.97380000       1.92290000      -0.17780000
H        0.46100000       1.97470000       0.85240000
H        0.73470000      -3.01410000      -0.51000000
H        0.31310000      -2.91020000       1.18750000
H       -2.12590000      -2.75370000       0.56830000
H       -1.69610000      -2.87510000      -1.13100000
H       -0.67450000      -5.13290000      -0.70090000
H       -0.29700000      -5.73830000       1.68790000
H       -1.66730000      -4.71820000       2.17210000
H       -1.87260000      -7.32300000       0.54090000
H       -3.09550000      -6.71720000       1.67330000
H       -3.61090000      -4.81440000       0.12340000
H       -3.00270000      -5.86720000      -1.16980000
