14
Properties=species:S:1:pos:R:3 gdb_56392=T pbc="F F F"
N        0.01080000       1.31780000      -0.24070000
C        0.07390000      -0.01920000       0.01740000
O        1.10930000      -0.61790000       0.23200000
C       -1.22530000      -0.68170000       0.01270000
C       -2.26830000      -1.28490000       0.02470000
C       -3.51390000      -2.06770000       0.04900000
O       -3.28090000      -3.45470000      -0.14860000
C       -4.26520000      -1.79230000       1.28320000
C       -4.87630000      -1.59710000       2.29840000
H        0.86810000       1.84570000      -0.24010000
H       -0.86390000       1.78690000      -0.39680000
H       -4.13000000      -1.76930000      -0.80940000
H       -2.71660000      -3.76060000       0.57170000
H       -5.42020000      -1.42190000       3.19410000
