20
Properties=species:S:1:pos:R:3 gdb_12851=T pbc="F F F"
C       -0.24030000       1.51350000       0.10570000
C        0.03590000       0.02300000      -0.00530000
C       -1.17700000      -0.92170000       0.26840000
C       -0.41340000      -1.58300000       1.44760000
C        0.82420000      -0.68980000       1.16070000
C        1.98260000      -1.38030000       0.43920000
O        1.54290000      -1.56290000      -0.90380000
C        0.85030000      -0.36970000      -1.24640000
H        0.68880000       2.09480000       0.09100000
H       -0.86470000       1.86310000      -0.72570000
H       -0.76990000       1.75170000       1.03410000
H       -2.09320000      -0.39710000       0.55270000
H       -1.41020000      -1.59890000      -0.55770000
H       -0.86600000      -1.41210000       2.42720000
H       -0.23220000      -2.65570000       1.33680000
H        1.15890000      -0.06100000       1.98860000
H        2.88540000      -0.74650000       0.46460000
H        2.23880000      -2.36440000       0.84280000
H        0.23720000      -0.57950000      -2.12820000
H        1.56600000       0.43190000      -1.50110000
