17
Properties=species:S:1:pos:R:3 gdb_132493=T pbc="F F F"
C        0.01150000       1.52490000      -0.02860000
C        0.01300000       0.01820000      -0.01830000
C        0.00090000      -0.70240000      -1.20900000
C        0.00280000      -2.08680000      -1.15170000
F       -0.00870000      -2.80330000      -2.27990000
C        0.01660000      -2.72680000       0.07600000
N        0.02840000      -2.04570000       1.22280000
C        0.02680000      -0.70880000       1.19040000
C        0.04050000      -0.00480000       2.52320000
H        0.89650000       1.93120000       0.47460000
H       -0.00140000       1.91240000      -1.05020000
H       -0.86140000       1.92960000       0.49630000
H       -0.01000000      -0.20330000      -2.17230000
H        0.01820000      -3.81220000       0.12740000
H        0.92010000       0.64110000       2.63070000
H       -0.83910000       0.63760000       2.65060000
H        0.05090000      -0.74670000       3.32220000
