16
Properties=species:S:1:pos:R:3 gdb_125970=T pbc="F F F"
C        0.04220000       1.01300000      -1.51000000
C        0.20090000      -0.33710000      -0.85610000
C        1.17840000      -1.33240000      -1.37140000
N        1.42320000      -0.67720000      -0.08590000
C        2.46810000       0.23590000       0.01550000
C        2.72510000       1.14850000       0.99510000
O        3.87080000       1.77010000       0.70910000
N        4.35090000       1.20150000      -0.49650000
N        3.52120000       0.32880000      -0.87320000
H        0.95340000       1.32110000      -2.02900000
H       -0.77100000       0.97730000      -2.24200000
H       -0.20750000       1.78330000      -0.77200000
H       -0.69540000      -0.71770000      -0.37090000
H        0.97260000      -2.39690000      -1.30680000
H        1.80320000      -1.03320000      -2.20820000
H        2.21150000       1.43340000       1.89700000
