17
Properties=species:S:1:pos:R:3 gdb_30216=T pbc="F F F"
C       -0.05840000       1.56680000      -0.07280000
C        0.06260000       0.08210000      -0.06800000
C       -0.18040000      -0.87350000      -1.04690000
N        0.05560000      -2.16920000      -0.61830000
C        0.46360000      -1.98280000       0.61430000
C        0.81420000      -2.49930000       2.00620000
O        1.97390000      -3.25490000       2.19980000
C        0.84740000      -0.95020000       2.39770000
N        0.50380000      -0.68220000       0.98660000
H        0.90260000       2.05980000       0.11630000
H       -0.41970000       1.90460000      -1.04710000
H       -0.76440000       1.92580000       0.68570000
H       -0.51170000      -0.67850000      -2.05730000
H        0.00870000      -3.03580000       2.51470000
H        2.62850000      -2.97430000       1.55060000
H        0.08660000      -0.62370000       3.11190000
H        1.83280000      -0.58270000       2.69600000
