18
Properties=species:S:1:pos:R:3 gdb_76253=T pbc="F F F"
C       -0.16950000       1.56550000      -0.04650000
C        0.02440000       0.05630000      -0.06550000
C        0.78200000      -0.63840000      -1.24280000
C        1.36070000       0.11860000      -2.40650000
O        1.13320000       1.26600000      -2.69570000
C        1.81170000      -1.09020000      -0.15370000
O        2.81820000      -1.74790000      -0.13650000
N        1.09640000      -0.44830000       0.81500000
C        1.25880000      -0.42910000       2.24670000
H        0.76790000       2.09320000      -0.22880000
H       -0.88150000       1.87040000      -0.81650000
H       -0.56650000       1.87460000       0.92690000
H       -0.93150000      -0.44360000       0.14190000
H        0.26400000      -1.51890000      -1.64130000
H        2.05750000      -0.50070000      -3.01380000
H        2.18360000      -0.96020000       2.48310000
H        1.33240000       0.59530000       2.62820000
H        0.42380000      -0.93080000       2.75200000
