20
Properties=species:S:1:pos:R:3 gdb_32917=T pbc="F F F"
C        0.32040000       1.56230000       0.14000000
C        0.70600000       0.08700000       0.14860000
N        0.02970000      -0.62020000       1.24960000
C        0.34100000      -1.98660000       1.38480000
C       -0.25150000      -3.13850000       0.91710000
C        0.49520000      -4.24530000       1.42290000
C        1.53720000      -3.73710000       2.16560000
N        2.62290000      -4.33210000       2.84680000
N        1.43320000      -2.36630000       2.13670000
H        0.56920000       2.03350000       1.09540000
H        0.84180000       2.09510000      -0.66080000
H       -0.75620000       1.68740000      -0.02590000
H        0.48530000      -0.37030000      -0.83030000
H        1.78590000      -0.01700000       0.30220000
H       -0.97350000      -0.50340000       1.16200000
H       -1.12770000      -3.18180000       0.28730000
H        0.29080000      -5.29350000       1.26310000
H        2.43630000      -4.44890000       3.83940000
H        2.81630000      -5.25150000       2.46820000
H        2.06120000      -1.73240000       2.60070000
