17
Properties=species:S:1:pos:R:3 gdb_95675=T pbc="F F F"
O       -0.49670000       1.38620000      -0.85860000
C       -0.15190000       0.27250000      -0.04050000
C       -1.42490000      -0.53910000       0.15570000
C       -1.17130000      -1.85660000       0.87870000
O       -0.86330000      -2.93990000      -0.00360000
C        0.22930000      -2.95430000      -0.79950000
O        0.45480000      -3.94920000      -1.44250000
C        1.15490000      -1.78980000      -0.90180000
C        1.00480000      -0.49030000      -0.63240000
H        0.27270000       1.95920000      -0.94040000
H        0.18080000       0.62940000       0.95190000
H       -2.13380000       0.06960000       0.72530000
H       -1.88570000      -0.74290000      -0.81630000
H       -0.37920000      -1.75280000       1.63220000
H       -2.07450000      -2.19300000       1.39110000
H        2.08630000      -2.11240000      -1.35650000
H        1.85690000       0.14840000      -0.86990000
