20
Properties=species:S:1:pos:R:3 gdb_114975=T pbc="F F F"
C        0.07140000       1.61070000       0.10460000
C        0.07690000       0.08090000       0.05070000
C        0.67000000      -0.49660000      -1.25130000
C        0.74840000      -2.03010000      -1.22620000
C       -0.61080000      -2.72400000      -1.41060000
O       -0.83630000      -3.80760000      -0.89940000
C       -1.52720000      -2.02510000      -2.29620000
C       -1.21810000      -0.79290000      -2.77580000
N       -0.09820000      -0.09630000      -2.43610000
H        1.08170000       2.01870000      -0.01700000
H       -0.56240000       2.04370000      -0.67710000
H       -0.31550000       1.96680000       1.06360000
H        0.66960000      -0.31160000       0.88570000
H       -0.94070000      -0.30390000       0.18410000
H        1.68220000      -0.09170000      -1.37410000
H        1.38730000      -2.37300000      -2.05080000
H        1.20040000      -2.38090000      -0.29580000
H       -2.43860000      -2.52210000      -2.60150000
H       -1.86530000      -0.29190000      -3.49090000
H       -0.07050000       0.87750000      -2.68870000
