21
Properties=species:S:1:pos:R:3 gdb_52319=T pbc="F F F"
O       -0.07390000      -0.06910000      -0.01980000
C        0.06430000       1.12720000      -0.00790000
C        1.38020000       1.85550000      -0.12680000
C        1.37790000       2.86240000      -1.29000000
C        2.63100000       3.73480000      -1.31090000
C        2.66330000       4.79190000      -2.42440000
C        3.49630000       5.91120000      -1.78500000
C        3.04720000       5.83000000      -0.32180000
O        2.72580000       4.46040000      -0.07790000
H       -0.82010000       1.80170000       0.09350000
H        1.54190000       2.41680000       0.80320000
H        2.18260000       1.11900000      -0.23020000
H        1.29970000       2.33000000      -2.24610000
H        0.50050000       3.51740000      -1.21140000
H        3.51630000       3.08280000      -1.39390000
H        3.08790000       4.40640000      -3.35420000
H        1.64700000       5.14440000      -2.63780000
H        4.56510000       5.68770000      -1.86960000
H        3.32080000       6.89430000      -2.22820000
H        3.82300000       6.14080000       0.38630000
H        2.15910000       6.45530000      -0.14550000
