18
Properties=species:S:1:pos:R:3 gdb_82543=T pbc="F F F"
O        0.02480000       1.37030000       0.05330000
C       -0.05760000      -0.01730000       0.02930000
C       -0.49470000      -0.81140000       1.22550000
N       -1.49440000       0.03040000       1.93700000
C       -2.41330000      -0.10610000       0.77200000
C       -3.84900000      -0.50320000       0.85330000
C       -3.45580000       0.87900000       0.35380000
C       -1.35060000      -0.80190000      -0.05320000
O       -1.62560000      -1.78610000      -0.98220000
H       -0.39910000       1.63720000       0.88330000
H        0.75290000      -0.46960000      -0.53830000
H        0.08980000      -1.56830000       1.73380000
H       -1.86650000      -0.46090000       2.74430000
H       -4.20380000      -1.23490000       0.13510000
H       -4.30870000      -0.57200000       1.83460000
H       -3.64290000       1.71970000       1.01350000
H       -3.56430000       1.09990000      -0.70300000
H       -1.42330000      -1.44160000      -1.85890000
