17
Properties=species:S:1:pos:R:3 gdb_67150=T pbc="F F F"
C       -0.04060000       1.56390000       0.04650000
C       -0.00000000       0.06540000       0.01040000
C        0.58310000      -0.87680000      -1.08890000
C        1.51820000      -1.52980000      -0.05170000
C        0.67730000      -0.88880000       1.09500000
C       -0.69380000      -1.56270000       1.25000000
O       -1.20810000      -2.18750000       2.13170000
C       -1.22320000      -0.91330000      -0.05100000
O       -0.66910000      -1.59330000      -1.20140000
H        0.96920000       1.98870000       0.05220000
H       -0.56900000       1.96560000      -0.82480000
H       -0.55450000       1.92210000       0.94540000
H        0.97230000      -0.58820000      -2.06760000
H        1.61340000      -2.61790000      -0.08100000
H        2.51410000      -1.07570000      -0.08450000
H        1.18530000      -0.56560000       2.00360000
H       -2.28150000      -0.66700000      -0.16240000
