16
Properties=species:S:1:pos:R:3 gdb_81118=T pbc="F F F"
O        0.13430000       1.37880000       0.04360000
C        0.05400000      -0.01010000       0.03620000
C        0.01740000      -0.62560000       1.47770000
C       -1.48620000      -0.19940000       1.52550000
C       -1.42610000      -0.64160000       0.01800000
C       -1.04420000      -2.11750000       0.15280000
C       -0.10460000      -2.10230000       1.10430000
C       -2.39440000      -0.22070000      -0.96220000
N       -3.14050000       0.15680000      -1.76180000
H        0.04920000       1.70050000      -0.86060000
H        0.74540000      -0.47570000      -0.67630000
H        0.73480000      -0.31970000       2.23600000
H       -2.15350000      -0.77470000       2.16850000
H       -1.62720000       0.87510000       1.64070000
H       -1.44060000      -2.92650000      -0.44240000
H        0.47820000      -2.91790000       1.50670000
