23
Properties=species:S:1:pos:R:3 gdb_62511=T pbc="F F F"
C        1.59110000       0.96970000      -1.03700000
C        0.88210000      -0.27020000      -0.50870000
C       -0.21120000      -0.71800000      -1.46820000
C        1.69610000      -1.39560000       0.16090000
C        3.16430000      -1.35160000       0.31030000
O        3.87530000      -2.32680000       0.22610000
C        0.73800000      -0.50340000       0.97560000
C        1.29830000       0.49570000       1.97900000
C       -0.50220000      -1.18930000       1.53040000
H        2.39610000       1.33140000      -0.39780000
H        2.02150000       0.76730000      -2.02390000
H        0.87180000       1.78860000      -1.15560000
H        0.20510000      -0.85800000      -2.47190000
H       -0.68050000      -1.65830000      -1.17600000
H       -0.99740000       0.04300000      -1.54120000
H        1.34380000      -2.40510000      -0.03190000
H        3.60890000      -0.35270000       0.51050000
H        2.19800000       1.01070000       1.64290000
H        0.54570000       1.26050000       2.20370000
H        1.54170000      -0.00980000       2.92000000
H       -0.27780000      -1.63980000       2.50350000
H       -1.31030000      -0.46360000       1.68220000
H       -0.88040000      -1.98210000       0.88370000
