20
Properties=species:S:1:pos:R:3 gdb_97665=T pbc="F F F"
C       -0.33730000       1.39370000       0.09010000
N       -0.05790000      -0.03280000       0.15730000
C        1.25310000      -0.49810000      -0.25120000
C        0.85320000      -0.55700000       1.19880000
C        1.54230000       0.36220000       2.19810000
C        0.44090000      -1.82450000       1.75800000
C        0.13480000      -2.87610000       2.26200000
C       -0.31490000      -4.13620000       2.85110000
O       -1.42730000      -3.99000000       3.72460000
H        0.53960000       2.04440000       0.22570000
H       -0.76470000       1.61080000      -0.89420000
H       -1.08350000       1.65500000       0.84680000
H        1.27830000      -1.40390000      -0.85070000
H        2.00800000       0.24610000      -0.50820000
H        1.91430000       1.27550000       1.73000000
H        0.85810000       0.63760000       3.00690000
H        2.39370000      -0.15720000       2.64690000
H       -0.53200000      -4.85580000       2.04510000
H        0.48360000      -4.57660000       3.45880000
H       -2.09510000      -3.48210000       3.25200000
