20
Properties=species:S:1:pos:R:3 gdb_78297=T pbc="F F F"
C       -0.16590000       1.34030000       0.09670000
N        0.07360000      -0.09430000      -0.03550000
C        0.79340000      -0.44860000      -1.27810000
C        1.50480000      -0.45090000       0.01960000
C        1.66080000      -2.00460000      -0.06660000
O        2.84400000      -2.64380000       0.25550000
C        0.33440000      -2.70460000      -0.20870000
C        0.95150000      -1.99860000      -1.40620000
C        1.29410000      -2.67560000      -2.70000000
H        0.62830000       1.96870000      -0.34180000
H       -1.11100000       1.59180000      -0.39480000
H       -0.25310000       1.59220000       1.15830000
H        0.85540000       0.25530000      -2.09970000
H        2.24890000       0.23500000       0.40630000
H        2.77980000      -2.95760000       1.16480000
H        0.43340000      -3.78550000      -0.26460000
H       -0.56310000      -2.33440000       0.27040000
H        0.42060000      -2.74980000      -3.35900000
H        2.07480000      -2.12880000      -3.24180000
H        1.66570000      -3.68880000      -2.51950000
