16
Properties=species:S:1:pos:R:3 gdb_51391=T pbc="F F F"
O        0.27790000       0.82450000      -1.32240000
C        0.17450000       1.48750000      -0.31500000
N        1.20120000       1.75210000       0.54460000
C        2.49590000       1.15420000       0.37410000
C        3.54730000       1.72730000      -0.50890000
C        3.44300000       3.25670000      -0.56030000
C        3.64540000       3.25330000       0.97470000
O        3.84300000       4.11790000       1.77940000
C        3.71520000       1.74920000       1.04540000
H       -0.77210000       1.96120000       0.01350000
H        0.99340000       2.21580000       1.41570000
H        2.48240000       0.06670000       0.39370000
H        4.09290000       1.11270000      -1.21150000
H        4.29930000       3.73600000      -1.04320000
H        2.51720000       3.68110000      -0.95460000
H        4.33310000       1.16340000       1.71500000
