19
Properties=species:S:1:pos:R:3 gdb_112255=T pbc="F F F"
C        0.19510000       1.69770000       0.03060000
C       -0.18820000       0.21580000       0.11850000
C        0.56590000      -0.49710000       1.24310000
C        0.49220000      -2.03220000       1.43670000
C       -0.19070000      -2.90710000       0.40360000
O        0.12770000      -4.26860000       0.60970000
O        1.95720000      -2.12030000       1.26680000
C        2.05770000      -0.77010000       1.02790000
O        3.03600000      -0.15650000       0.74400000
H        1.27060000       1.81090000      -0.13050000
H       -0.33070000       2.18690000      -0.79410000
H       -0.06310000       2.22690000       0.95440000
H       -1.26590000       0.11580000       0.29500000
H        0.01810000      -0.27240000      -0.84020000
H        0.41070000       0.03540000       2.18740000
H        0.23050000      -2.36410000       2.44470000
H       -1.27780000      -2.81730000       0.50370000
H        0.08360000      -2.57650000      -0.60910000
H        1.08790000      -4.34270000       0.55810000
