13
Properties=species:S:1:pos:R:3 gdb_132019=T pbc="F F F"
N        0.09360000       1.37210000       0.17560000
C       -0.01850000       0.00820000       0.06030000
C       -1.16260000      -0.70470000       0.02110000
F       -2.32240000      -0.03390000       0.01540000
C       -1.16360000      -2.15160000      -0.00980000
N       -2.23720000      -2.84030000      -0.03920000
N        0.13660000      -2.73120000      -0.01550000
C        1.15840000      -1.98730000       0.00620000
O        1.19280000      -0.62490000       0.04700000
H        0.89900000       1.76780000      -0.28940000
H       -0.76670000       1.86270000      -0.02170000
H       -1.98940000      -3.83080000      -0.06450000
H        2.16980000      -2.38120000      -0.00450000
