12
Properties=species:S:1:pos:R:3 gdb_43559=T pbc="F F F"
N       -0.11430000       1.22960000      -0.49010000
C       -0.03780000       0.06200000      -0.07140000
O        1.02890000      -0.69270000       0.38880000
C        0.18630000      -1.84870000       0.65750000
C        0.18240000      -2.22290000       2.06510000
N        0.18590000      -2.54490000       3.17390000
C       -1.05420000      -1.06950000       0.09930000
C       -2.18790000      -0.83480000       0.97240000
N       -3.09490000      -0.65580000       1.66400000
H        0.78050000       1.71970000      -0.47810000
H        0.48880000      -2.69930000       0.04230000
H       -1.39410000      -1.46990000      -0.85890000
