17
Properties=species:S:1:pos:R:3 gdb_127336=T pbc="F F F"
C       -0.34960000       1.29360000       0.13510000
N       -0.02270000      -0.09790000      -0.07180000
C        0.47610000      -0.71190000      -1.15900000
N        0.63910000      -2.00350000      -0.93850000
C        0.20870000      -2.13400000       0.34950000
N       -0.21050000      -1.01020000       0.92210000
N        0.28180000      -3.34100000       1.03250000
C       -0.85690000      -3.78460000       1.82350000
C       -0.49300000      -4.48010000       0.55400000
H        0.24700000       1.70580000       0.95330000
H       -0.13450000       1.84450000      -0.78250000
H       -1.40930000       1.40120000       0.38190000
H        0.70250000      -0.18670000      -2.07550000
H       -0.61020000      -4.22910000       2.78290000
H       -1.74080000      -3.15280000       1.81970000
H       -1.13220000      -4.32240000      -0.31040000
H        0.02490000      -5.43390000       0.57730000
