19
Properties=species:S:1:pos:R:3 gdb_116345=T pbc="F F F"
O       -0.05910000       1.41660000       0.00530000
C        0.00700000      -0.00190000       0.04230000
C       -1.42150000      -0.53840000      -0.01150000
C       -2.14430000      -0.11310000      -1.30050000
O       -3.42570000      -0.71340000      -1.38600000
C       -3.36720000      -2.11040000      -1.59800000
C       -2.40080000      -2.82890000      -0.67150000
O       -1.01220000      -2.78340000      -1.03340000
C       -1.44060000      -2.04660000       0.11960000
H        0.83740000       1.76020000      -0.04510000
H        0.57660000      -0.40190000      -0.81050000
H        0.49920000      -0.35480000       0.96310000
H       -1.97480000      -0.12490000       0.84220000
H       -2.30120000       0.96590000      -1.30360000
H       -1.53120000      -0.37980000      -2.17560000
H       -4.38230000      -2.48460000      -1.43200000
H       -3.08670000      -2.33640000      -2.64050000
H       -2.72540000      -3.80160000      -0.30240000
H       -1.08390000      -2.45410000       1.06680000
