17
Properties=species:S:1:pos:R:3 gdb_27986=T pbc="F F F"
C       -0.02890000       1.50230000       0.04460000
C       -0.01880000       0.01020000      -0.03170000
C       -0.05070000      -0.80110000      -1.12710000
C       -0.02250000      -2.17350000      -0.68340000
N       -0.11840000      -3.27920000      -1.53180000
C        0.02650000      -2.15890000       0.68120000
N        0.02380000      -0.81950000       1.09320000
C        0.07070000      -0.41490000       2.41390000
O        0.11180000      -1.17170000       3.35360000
H        0.86890000       1.90680000       0.52650000
H       -0.06940000       1.90820000      -0.96870000
H       -0.89730000       1.89020000       0.58990000
H       -0.09920000      -0.46650000      -2.15350000
H        0.36000000      -3.14990000      -2.41320000
H        0.17960000      -4.14470000      -1.10230000
H        0.05730000      -2.94150000       1.41860000
H        0.06680000       0.68300000       2.51630000
