21
Properties=species:S:1:pos:R:3 gdb_59821=T pbc="F F F"
C        0.01840000       1.56540000      -0.08040000
C       -0.01320000       0.03420000      -0.03640000
C        0.66220000      -0.58010000      -1.26780000
C        0.65130000      -0.51020000       1.25350000
C       -0.00630000      -0.09430000       2.48360000
C       -0.57760000       0.26570000       3.48560000
C       -1.25970000       0.70060000       4.68880000
C       -0.80280000       0.03710000       5.97320000
O       -2.13570000       1.53960000       4.65870000
H        1.05120000       1.93380000      -0.11300000
H       -0.49520000       1.93910000      -0.97160000
H       -0.46750000       1.99870000       0.79810000
H       -1.06210000      -0.28810000      -0.01910000
H        1.72130000      -0.29940000      -1.31630000
H        0.60640000      -1.67390000      -1.25540000
H        0.18540000      -0.23080000      -2.18870000
H        0.67780000      -1.60730000       1.21840000
H        1.70150000      -0.18580000       1.28440000
H        0.26660000       0.21590000       6.12910000
H       -1.37490000       0.43320000       6.81350000
H       -0.93800000      -1.04770000       5.90460000
