19
Properties=species:S:1:pos:R:3 gdb_83381=T pbc="F F F"
C       -0.00490000       1.67050000       0.01160000
C        0.03700000       0.15330000       0.00660000
C        1.13390000      -0.59260000      -0.75810000
O        2.35480000      -0.03950000      -0.13830000
C        2.07630000      -0.04490000       1.29950000
C        0.71080000      -0.68930000       1.17600000
O       -0.14470000      -1.44960000       2.01550000
C       -0.30550000      -2.39300000       0.89410000
C        0.94770000      -1.82080000       0.15880000
H        0.99790000       2.10200000       0.04650000
H       -0.49160000       2.04340000      -0.89610000
H       -0.57710000       2.04490000       0.86740000
H       -0.95110000      -0.26020000      -0.20000000
H        1.28550000      -0.58980000      -1.83680000
H        2.80950000      -0.66230000       1.82640000
H        2.10320000       0.97870000       1.68570000
H       -0.17800000      -3.42040000       1.24250000
H       -1.28190000      -2.28410000       0.41380000
H        1.83060000      -2.45060000       0.26670000
