18
Properties=species:S:1:pos:R:3 gdb_70531=T pbc="F F F"
C       -0.18380000       1.46910000       0.03850000
C        0.04450000      -0.02020000       0.03670000
C       -0.98470000      -0.89730000      -0.67590000
C       -1.79260000      -1.71300000       0.30910000
N       -3.04690000      -1.84080000       0.19070000
O       -1.10660000      -2.28880000       1.33820000
C        0.32470000      -2.13860000       1.38270000
C        0.75150000      -0.70570000       1.12980000
O        1.40530000      -0.44870000      -0.11890000
H        0.58650000       1.97940000       0.62170000
H       -0.15720000       1.86050000      -0.98420000
H       -1.16510000       1.70630000       0.46240000
H       -1.68400000      -0.31830000      -1.27880000
H       -0.44310000      -1.57420000      -1.34680000
H       -3.41110000      -2.43530000       0.93840000
H        0.60750000      -2.48100000       2.37960000
H        0.79550000      -2.79360000       0.64030000
H        1.13980000      -0.13710000       1.97240000
