15
Properties=species:S:1:pos:R:3 gdb_42513=T pbc="F F F"
O        0.02110000       0.04580000       0.56250000
C       -0.03310000       1.20780000       0.31310000
C       -1.20260000       2.24490000       0.09520000
N       -0.15630000       3.31290000      -0.02030000
C        0.93450000       2.32380000       0.09840000
C        2.24900000       2.52920000       0.80770000
C        2.23190000       2.26980000      -0.67150000
C       -2.00910000       2.01530000      -1.09100000
N       -2.62280000       1.84650000      -2.05680000
H       -1.84380000       2.37250000       0.97310000
H       -0.18370000       3.76400000      -0.92990000
H        2.44760000       3.53980000       1.14690000
H        2.57940000       1.73790000       1.47180000
H        2.54740000       1.30020000      -1.04130000
H        2.43020000       3.10270000      -1.33820000
