19
Properties=species:S:1:pos:R:3 gdb_92966=T pbc="F F F"
C        0.07850000       1.57810000      -0.04410000
C        0.02430000       0.05210000       0.04620000
C        0.69880000      -0.65250000      -1.16890000
C        1.99820000      -1.17420000      -0.59580000
C        1.98870000      -1.04760000       0.73190000
N        0.81490000      -0.44420000       1.19930000
C        0.36230000      -0.32240000       2.49060000
N        1.15990000      -0.92900000       3.46010000
O       -0.64380000       0.30740000       2.77270000
H        1.11130000       1.91940000      -0.17170000
H       -0.50480000       1.92150000      -0.90500000
H       -0.33530000       2.02220000       0.86260000
H       -1.01210000      -0.26420000       0.18220000
H        0.08070000      -1.46720000      -1.56890000
H        0.85170000       0.05620000      -1.99000000
H        2.80390000      -1.59660000      -1.17790000
H        2.76540000      -1.31020000       1.43600000
H        1.58190000      -1.81520000       3.22470000
H        0.69150000      -0.93760000       4.35460000
