19
Properties=species:S:1:pos:R:3 gdb_36840=T pbc="F F F"
C        0.00630000       1.58090000       0.23560000
C       -0.02460000       0.07050000       0.28530000
C       -1.18960000      -0.70060000      -0.16030000
O       -0.02110000      -0.60450000      -0.97730000
C        1.39090000       2.10330000      -0.02570000
C        2.39570000       1.73410000      -1.15160000
C        3.11960000       2.57570000      -0.07850000
C        1.92760000       3.55950000      -0.04330000
O        2.45160000       1.77100000       0.97170000
H       -0.66590000       1.93560000      -0.55370000
H       -0.35170000       1.98870000       1.18940000
H        0.63800000      -0.37660000       1.02590000
H       -1.38560000      -1.68400000       0.26460000
H       -2.06770000      -0.17640000      -0.53690000
H        2.67740000       0.68220000      -1.19330000
H        2.24130000       2.17570000      -2.13940000
H        4.18330000       2.77470000       0.04790000
H        1.73240000       4.16980000      -0.92920000
H        1.80670000       4.10810000       0.89200000
