16
Properties=species:S:1:pos:R:3 gdb_74102=T pbc="F F F"
N        0.05940000       1.36050000       0.11410000
C       -0.00870000       0.00450000       0.00720000
C       -1.13990000      -0.74850000      -0.03740000
C       -0.97300000      -2.19870000      -0.00900000
O       -1.87090000      -3.01930000       0.02090000
C        0.51370000      -2.61150000       0.00900000
C        1.26370000      -1.84660000       1.12870000
C        1.30480000      -0.76640000       0.01920000
O        1.22600000      -1.80550000      -0.98420000
H        0.90560000       1.82480000      -0.17360000
H       -0.78580000       1.89560000      -0.01240000
H       -2.13900000      -0.32750000      -0.06680000
H        0.64250000      -3.68570000      -0.12580000
H        0.74120000      -1.62170000       2.05910000
H        2.25120000      -2.27070000       1.31960000
H        2.18440000      -0.12490000      -0.09460000
