19
Properties=species:S:1:pos:R:3 gdb_37628=T pbc="F F F"
C       -0.03070000       1.55840000       0.01210000
C        1.46850000       1.87750000       0.03510000
C        2.05580000       0.95610000       1.12770000
C        2.59020000       0.00500000       0.07250000
C        1.29330000      -0.30280000       0.80780000
C        0.03560000       0.01190000      -0.03160000
C        0.30650000      -0.40000000      -1.48860000
O        1.33200000       0.42980000      -2.04640000
C        2.17920000       0.96100000      -1.04470000
H       -0.52040000       1.92030000       0.92240000
H       -0.54870000       1.97910000      -0.85550000
H        1.74540000       2.93130000       0.02830000
H        2.46210000       1.22100000       2.09370000
H        3.45130000      -0.65230000       0.09580000
H        1.30210000      -1.13460000       1.50120000
H       -0.86200000      -0.48280000       0.34640000
H        0.60800000      -1.45760000      -1.53740000
H       -0.58050000      -0.26850000      -2.11880000
H        3.00660000       1.45230000      -1.55770000
