15
Properties=species:S:1:pos:R:3 gdb_108996=T pbc="F F F"
O       -0.07570000       1.37510000      -0.16200000
C       -0.04730000      -0.02550000       0.03400000
C       -1.44310000      -0.53290000       0.10400000
C       -2.62250000       0.12060000       0.10570000
C       -3.62660000      -1.00690000       0.07280000
O       -3.03110000      -2.00410000       0.95440000
C       -1.87770000      -1.98430000       0.07240000
C       -2.96830000      -1.87310000      -1.09080000
O       -3.20450000      -2.30380000      -2.16400000
H        0.82570000       1.70530000      -0.10630000
H        0.48460000      -0.54200000      -0.78480000
H        0.48490000      -0.29300000       0.96340000
H       -2.81660000       1.17930000       0.03800000
H       -4.69160000      -0.84260000       0.21170000
H       -1.17680000      -2.80550000       0.20400000
