18
Properties=species:S:1:pos:R:3 gdb_39643=T pbc="F F F"
C       -0.02050000       1.37080000      -0.27620000
O        1.32410000       1.59480000       0.17880000
C        1.46600000       0.22200000       0.60820000
C        0.06410000      -0.13900000       0.08140000
C       -0.92860000      -0.64710000       1.06650000
N       -0.72460000      -0.90580000       2.29270000
C       -2.00920000      -1.35830000       2.84650000
C       -2.99960000      -1.28400000       1.65460000
O       -2.18090000      -0.82290000       0.55580000
H       -0.75780000       1.94190000       0.30170000
H       -0.14410000       1.59850000      -1.34120000
H        2.30430000      -0.27730000       0.10970000
H        1.57030000       0.13210000       1.69340000
H        0.05700000      -0.78350000      -0.80040000
H       -1.90650000      -2.37300000       3.24540000
H       -2.30540000      -0.71160000       3.67900000
H       -3.42980000      -2.25070000       1.37910000
H       -3.81050000      -0.56540000       1.80330000
