13
Properties=species:S:1:pos:R:3 gdb_20578=T pbc="F F F"
C        0.00570000       1.52000000      -0.11100000
C        0.01300000       0.00070000       0.11190000
O        0.70320000      -0.37770000       1.28140000
C       -1.39000000      -0.54160000       0.10430000
N       -2.01250000      -1.00920000       1.14610000
O       -3.24450000      -1.34220000       0.68940000
N       -3.31210000      -1.05000000      -0.66770000
N       -2.20450000      -0.56900000      -1.01580000
H        1.03570000       1.88300000      -0.13490000
H       -0.48570000       1.77560000      -1.05410000
H       -0.52560000       2.02480000       0.70300000
H        0.55090000      -0.47450000      -0.71650000
H        0.17240000      -0.12470000       2.04570000
