17
Properties=species:S:1:pos:R:3 gdb_1887=T pbc="F F F"
C        0.07310000       1.54810000      -0.05830000
C       -0.05290000       0.02820000       0.05070000
O        0.58070000      -0.59330000      -1.07640000
C        1.51810000      -1.56710000      -0.64050000
C        1.53260000      -1.48170000       0.86570000
C        2.43930000      -2.32470000       1.70170000
C        0.63160000      -0.57960000       1.24520000
H        1.12470000       1.84820000      -0.02690000
H       -0.36090000       1.89490000      -1.00050000
H       -0.45700000       2.03890000       0.76510000
H       -1.12570000      -0.23340000       0.03870000
H        1.21970000      -2.57120000      -0.98850000
H        2.50670000      -1.35950000      -1.08080000
H        3.49270000      -2.14030000       1.45490000
H        2.30110000      -2.12830000       2.76780000
H        2.26090000      -3.39320000       1.52640000
H        0.39490000      -0.29660000       2.26390000
