14
Properties=species:S:1:pos:R:3 gdb_5510=T pbc="F F F"
C       -0.03860000       1.43490000       0.07070000
N       -0.02000000      -0.01390000       0.02830000
C       -0.05700000      -0.80510000      -1.07550000
N       -0.02610000      -2.08930000      -0.78120000
C        0.03410000      -2.14040000       0.58120000
C        0.03990000      -0.86770000       1.12350000
C        0.09130000      -0.40430000       2.45000000
C        0.13510000       0.00180000       3.58430000
H        0.86560000       1.81890000       0.55100000
H       -0.08830000       1.81510000      -0.95090000
H       -0.90810000       1.79390000       0.62800000
H       -0.10630000      -0.38520000      -2.06980000
H        0.07080000      -3.07500000       1.11940000
H        0.17410000       0.34690000       4.58760000
