16
Properties=species:S:1:pos:R:3 gdb_61711=T pbc="F F F"
C       -0.34180000       1.64180000      -0.15610000
C       -0.05780000       0.13050000      -0.01730000
N        0.78550000      -0.20800000       1.10500000
C        0.35600000      -0.09980000       2.38680000
O       -0.75560000       0.27800000       2.70310000
C       -1.39020000      -0.65120000       0.04860000
O       -2.35960000      -0.33900000      -0.58580000
C        0.65300000      -0.33590000      -1.28960000
O        1.73840000      -0.85580000      -1.29190000
H        0.58670000       2.19320000      -0.32580000
H       -1.02950000       1.81470000      -0.98600000
H       -0.80910000       1.99320000       0.76520000
H        1.70150000      -0.57580000       0.88480000
H        1.12960000      -0.39430000       3.12020000
H       -1.34980000      -1.55690000       0.68540000
H        0.08540000      -0.13430000      -2.21830000
