21
Properties=species:S:1:pos:R:3 gdb_86811=T pbc="F F F"
C        0.40610000       1.51770000      -0.73070000
C        0.03500000       0.15420000      -0.18650000
C        0.62280000      -1.11030000      -0.85000000
C        1.10870000      -1.45700000       0.56980000
C        2.58440000      -1.72590000       0.80610000
C        3.03220000      -3.08690000       0.29370000
C        4.46470000      -3.48780000       0.59560000
O        2.28170000      -3.80940000      -0.32430000
O        0.71470000      -0.15370000       1.06000000
H        1.48580000       1.59130000      -0.89420000
H       -0.10470000       1.70040000      -1.68270000
H        0.11070000       2.30420000      -0.02890000
H       -1.05380000       0.08930000      -0.04510000
H       -0.07480000      -1.80790000      -1.31230000
H        1.43510000      -0.89550000      -1.54990000
H        0.51040000      -2.24850000       1.03940000
H        3.19320000      -0.94910000       0.32300000
H        2.81200000      -1.64820000       1.87800000
H        4.60740000      -3.57980000       1.67850000
H        4.69240000      -4.44060000       0.11630000
H        5.16370000      -2.71880000       0.24900000
