19
Properties=species:S:1:pos:R:3 gdb_76417=T pbc="F F F"
O        0.07890000       1.33120000       0.12490000
C        0.08840000      -0.06510000       0.05090000
C       -0.42400000      -0.77330000       1.29360000
O       -0.88270000       0.05870000       2.32090000
C       -1.26340000      -0.76180000       0.02660000
O       -2.34990000       0.12530000       0.06590000
C       -1.48840000      -1.99400000      -0.78610000
C       -2.82750000      -2.68750000      -0.77070000
C       -2.37060000      -1.95570000      -2.00920000
H       -0.79790000       1.60220000      -0.18830000
H        0.92680000      -0.47510000      -0.50500000
H        0.03410000      -1.69680000       1.63630000
H       -0.46930000       0.92160000       2.15670000
H       -2.50280000       0.30330000       1.00820000
H       -0.61160000      -2.63340000      -0.84210000
H       -2.84350000      -3.77150000      -0.78120000
H       -3.61680000      -2.22540000      -0.18920000
H       -2.86170000      -1.01690000      -2.23660000
H       -2.07010000      -2.53460000      -2.87540000
