18
Properties=species:S:1:pos:R:3 gdb_28016=T pbc="F F F"
C        0.07890000       1.50210000       0.01620000
C        0.02650000       0.01020000      -0.01490000
C        0.22000000      -0.88100000      -1.04580000
C        0.05840000      -2.20150000      -0.52930000
C        0.15210000      -3.49680000      -1.29670000
C        1.42600000      -3.68360000      -1.99140000
C        2.46880000      -3.83000000      -2.57080000
C       -0.22930000      -2.07390000       0.80840000
N       -0.24830000      -0.73280000       1.10990000
H        0.84730000       1.87600000       0.70470000
H        0.31510000       1.88500000      -0.97910000
H       -0.87710000       1.94550000       0.32270000
H        0.46470000      -0.61890000      -2.06440000
H       -0.00970000      -4.33700000      -0.60990000
H       -0.65880000      -3.55830000      -2.03650000
H        3.39300000      -3.96000000      -3.07660000
H       -0.41960000      -2.82090000       1.56280000
H       -0.42890000      -0.34950000       2.02130000
