16
Properties=species:S:1:pos:R:3 gdb_44785=T pbc="F F F"
O        0.05650000       0.10440000       0.10450000
C       -0.02140000       1.29810000       0.05150000
C       -1.22810000       2.23790000       0.16390000
N       -0.56340000       3.55510000      -0.02120000
C        0.66510000       3.37950000       0.91520000
C        1.10360000       2.32650000      -0.19330000
O        2.08820000       1.84310000      -1.14640000
C        1.12140000       2.27380000      -2.20290000
C        0.52240000       3.27300000      -1.14930000
H       -1.96600000       2.05050000      -0.62170000
H       -1.72940000       2.19040000       1.13430000
H        1.26900000       4.28510000       0.93130000
H        0.40910000       3.04520000       1.92410000
H        1.63750000       2.72470000      -3.05250000
H        0.49960000       1.43010000      -2.51390000
H        1.06810000       4.21270000      -1.22830000
