16
Properties=species:S:1:pos:R:3 gdb_75996=T pbc="F F F"
C       -0.14280000       1.31900000       0.51480000
N       -0.05170000      -0.10420000       0.29430000
C       -1.11470000      -1.03240000      -0.09930000
C       -1.87830000      -0.60780000      -1.27260000
N       -2.45000000      -0.24300000      -2.20890000
C        0.05430000      -2.06760000      -0.44450000
O        0.06080000      -2.72170000      -1.66130000
C        0.98650000      -0.87000000      -0.22750000
N        2.20740000      -0.70830000      -0.50550000
H        0.85460000       1.69950000       0.75010000
H       -0.52330000       1.85130000      -0.36710000
H       -0.79760000       1.53370000       1.36510000
H       -1.79670000      -1.31760000       0.70820000
H        0.12720000      -2.82170000       0.34250000
H        0.33870000      -2.10570000      -2.34920000
H        2.53370000       0.24010000      -0.31370000
