21
Properties=species:S:1:pos:R:3 gdb_75378=T pbc="F F F"
C        0.09280000       1.47920000       0.09760000
C       -0.06160000      -0.00720000       0.00890000
C       -0.10830000      -0.76170000      -1.10740000
C       -0.17150000      -2.25300000      -0.82300000
C       -0.51600000      -2.28060000       0.68430000
C        0.16150000      -3.20500000       1.71140000
C        0.21940000      -2.32420000       2.99660000
C        0.28370000      -0.91050000       2.44230000
C       -0.09800000      -0.90290000       1.16160000
H        1.00240000       1.74420000       0.65050000
H        0.15120000       1.93850000      -0.89280000
H       -0.74600000       1.93320000       0.63830000
H       -0.03900000      -0.36380000      -2.11530000
H       -0.90110000      -2.77730000      -1.44950000
H        0.80510000      -2.71970000      -1.02390000
H       -1.60940000      -2.36500000       0.77960000
H       -0.35820000      -4.15470000       1.86760000
H        1.18350000      -3.43210000       1.38490000
H       -0.67810000      -2.47380000       3.61670000
H        1.07510000      -2.56950000       3.63580000
H        0.62610000      -0.06120000       3.02220000
