12
Properties=species:S:1:pos:R:3 gdb_47968=T pbc="F F F"
O       -0.87780000       1.13530000      -0.29770000
C        0.18190000       0.89040000       0.22670000
C        1.34810000       1.73810000       0.11840000
C        2.33260000       2.43150000       0.04170000
C        3.50690000       3.25380000      -0.06350000
C        3.86380000       3.88260000      -1.36890000
O        3.30360000       4.65130000      -0.32290000
C        4.57900000       2.95380000       0.87160000
N        5.43250000       2.70230000       1.60780000
H        0.34040000      -0.01820000       0.83970000
H        4.91620000       4.05890000      -1.58120000
H        3.21390000       3.68810000      -2.21900000
