18
Properties=species:S:1:pos:R:3 gdb_8899=T pbc="F F F"
C        0.63650000       1.44430000       0.50800000
O        0.91970000       0.07410000       0.32180000
C        0.35840000      -0.78640000       1.29350000
C       -1.14230000      -1.02970000       1.10810000
C        1.13810000      -2.10010000       1.25520000
O        0.75250000      -3.07900000       1.85920000
C        2.43370000      -2.16520000       0.46620000
O        3.02850000      -3.42370000       0.58340000
H        0.94800000       1.78740000       1.50660000
H        1.20410000       1.99260000      -0.24710000
H       -0.43020000       1.67250000       0.37880000
H        0.53300000      -0.37000000       2.30280000
H       -1.71700000      -0.11820000       1.28890000
H       -1.34360000      -1.37380000       0.08940000
H       -1.47270000      -1.79770000       1.81040000
H        2.20740000      -1.91270000      -0.58110000
H        3.09810000      -1.36380000       0.82570000
H        2.42820000      -3.93770000       1.14670000
