18
Properties=species:S:1:pos:R:3 gdb_84487=T pbc="F F F"
C        0.02400000       1.44100000       0.02400000
N        0.02240000      -0.00090000       0.01130000
C       -0.02850000      -0.83410000      -1.10200000
N       -0.01900000      -2.09070000      -0.86220000
C        0.04540000      -2.19370000       0.57360000
C       -0.67030000      -3.32070000       1.29360000
C        0.82120000      -3.32190000       1.22650000
C        0.07260000      -0.81340000       1.14800000
N        0.12810000      -0.49980000       2.38180000
H        0.93500000       1.83180000       0.49290000
H       -0.02090000       1.81010000      -1.00260000
H       -0.84150000       1.83330000       0.57120000
H       -0.07260000      -0.39440000      -2.09300000
H       -1.14050000      -3.04770000       2.23170000
H       -1.21600000      -4.01240000       0.66310000
H        1.30690000      -4.01430000       0.54950000
H        1.37430000      -3.04960000       2.11850000
H        0.13560000       0.50950000       2.52660000
