16
Properties=species:S:1:pos:R:3 gdb_34642=T pbc="F F F"
N        0.03510000      -1.16230000      -0.09510000
C       -0.01360000      -0.00690000      -0.02900000
C       -0.03540000       1.42010000       0.04300000
C       -1.18570000       2.10760000       0.01270000
C       -1.17680000       3.60790000       0.11960000
O       -0.06810000       4.10820000       0.84980000
C        1.17880000       3.60520000       0.46060000
C        1.83950000       2.65080000       1.41610000
C        1.26430000       2.14840000       0.10080000
H       -2.14100000       1.60290000      -0.08290000
H       -1.22010000       4.05000000      -0.89140000
H       -2.06520000       3.95410000       0.65650000
H        1.78950000       4.31930000      -0.08780000
H        2.91840000       2.67200000       1.51960000
H        1.28640000       2.42710000       2.32090000
H        1.98170000       1.85820000      -0.66030000
