25
Properties=species:S:1:pos:R:3 gdb_112805=T pbc="F F F"
C        0.12760000       1.69790000       0.05670000
C        0.05660000       0.16650000       0.03240000
C        0.73180000      -0.44170000      -1.20090000
C        0.74040000      -2.00980000      -1.28690000
C        0.62680000      -2.85180000      -0.02420000
C       -0.47830000      -1.93910000      -2.24810000
C       -0.13100000      -0.44670000      -2.49570000
O       -1.17710000       0.49070000      -2.52770000
C       -1.95850000       0.41400000      -3.69750000
H        1.16860000       2.04150000       0.05290000
H       -0.37290000       2.12060000      -0.81690000
H       -0.35040000       2.09980000       0.95610000
H        0.54520000      -0.23230000       0.93020000
H       -0.99170000      -0.14840000       0.08380000
H        1.71820000       0.01940000      -1.32230000
H        1.62690000      -2.32600000      -1.84790000
H       -0.25230000      -2.57670000       0.56690000
H        0.53660000      -3.91420000      -0.27760000
H        1.50900000      -2.73910000       0.61600000
H       -0.49960000      -2.61980000      -3.10300000
H       -1.42330000      -2.02380000      -1.70130000
H        0.49840000      -0.33510000      -3.39320000
H       -2.72760000       1.18710000      -3.62830000
H       -1.35460000       0.59240000      -4.60160000
H       -2.44950000      -0.56520000      -3.80140000
