23
Properties=species:S:1:pos:R:3 gdb_110310=T pbc="F F F"
C       -0.44580000       1.51870000       0.15410000
C       -0.05000000       0.04520000       0.14540000
C        0.84940000      -0.54910000      -0.99160000
C        1.74920000      -1.20600000       0.07240000
C        2.26190000      -2.61480000      -0.02380000
C        2.37990000      -0.16240000       0.95020000
C        2.96460000       1.15520000       0.50380000
O        4.32240000       0.90550000       0.14950000
C        0.93080000      -0.51700000       1.18500000
H        0.41810000       2.18620000       0.09660000
H       -1.10170000       1.75100000      -0.69290000
H       -0.99200000       1.76660000       1.07140000
H       -0.96730000      -0.55200000       0.19360000
H        0.31930000      -1.27810000      -1.60990000
H        1.33800000       0.16740000      -1.66070000
H        3.04980000      -2.69780000      -0.78240000
H        2.68870000      -2.94630000       0.92870000
H        1.46380000      -3.31550000      -0.29670000
H        3.01700000      -0.61560000       1.70970000
H        2.41380000       1.57470000      -0.34760000
H        2.90000000       1.88580000       1.32680000
H        4.72280000       1.74360000      -0.10030000
H        0.62520000      -0.92080000       2.14550000
