10
Properties=species:S:1:pos:R:3 gdb_21970=T pbc="F F F"
O       -0.04020000       0.01470000       0.00450000
N       -0.03230000       1.24160000       0.00800000
O        0.95210000       1.96530000       0.00320000
C       -1.32090000       1.86270000       0.01900000
C       -2.58000000       1.35360000       0.02690000
N       -3.46860000       2.41040000       0.03610000
C       -2.71200000       3.46540000       0.03350000
O       -1.38610000       3.21660000       0.02310000
H       -2.88830000       0.32190000       0.02640000
H       -3.00800000       4.50270000       0.03830000
