15
Properties=species:S:1:pos:R:3 gdb_33292=T pbc="F F F"
N        0.05260000      -3.71550000      -0.01680000
C        0.03850000      -2.55360000      -0.01400000
C        0.02130000      -1.18960000      -0.01020000
C        0.00610000       0.02020000      -0.00680000
C       -0.01190000       1.45640000      -0.00310000
C       -0.65720000       2.43380000       1.01960000
N       -0.03620000       3.40330000       0.00190000
C        1.17540000       2.45910000       0.03760000
C       -0.59130000       2.43990000      -1.05850000
H       -1.74770000       2.47420000       1.06030000
H       -0.20980000       2.49100000       2.01420000
H        1.75480000       2.51800000       0.96140000
H        1.81210000       2.52330000      -0.84730000
H       -0.08250000       2.50290000      -2.02270000
H       -1.67720000       2.48070000      -1.16750000
