19
Properties=species:S:1:pos:R:3 gdb_108936=T pbc="F F F"
C        0.03470000       1.43040000      -0.01340000
N       -0.06030000      -0.01790000      -0.09240000
C        0.55860000      -0.73520000      -1.07180000
N        0.86600000      -1.97590000      -1.01940000
C        1.40250000      -2.30080000      -2.31860000
C        2.47630000      -3.34480000      -2.44650000
C        1.07660000      -3.62660000      -2.95340000
C        1.42820000      -0.98710000      -3.11450000
O        0.81620000      -0.03850000      -2.21650000
H        1.02100000       1.78570000       0.31840000
H       -0.17190000       1.86090000      -0.99380000
H       -0.71930000       1.79430000       0.68880000
H       -0.10120000      -0.52100000       0.78030000
H        3.26480000      -3.18540000      -3.17630000
H        2.79320000      -3.83540000      -1.53320000
H        0.45680000      -4.30540000      -2.37910000
H        0.91560000      -3.65680000      -4.02710000
H        2.44030000      -0.63750000      -3.34700000
H        0.83980000      -1.01650000      -4.03720000
