17
Properties=species:S:1:pos:R:3 gdb_79588=T pbc="F F F"
O        0.00030000       1.39100000       0.05850000
C       -0.10590000      -0.00120000       0.08010000
C       -0.46050000      -0.82410000       1.30260000
C       -1.50770000      -0.11640000       2.12210000
C       -2.82880000      -0.85800000       2.11570000
C       -2.42790000      -0.04920000       0.90860000
O       -3.10500000       1.10090000       0.50620000
C       -1.40090000      -0.75140000       0.05770000
O       -1.71310000      -1.75230000      -0.85110000
H       -0.88780000       1.75840000       0.13760000
H        0.67570000      -0.45510000      -0.52710000
H        0.13420000      -1.67400000       1.61800000
H       -1.32060000       0.70210000       2.80600000
H       -2.85550000      -1.94300000       2.07610000
H       -3.60910000      -0.39890000       2.71530000
H       -3.88930000       0.83940000       0.01110000
H       -1.46740000      -1.45210000      -1.73170000
