19
Properties=species:S:1:pos:R:3 gdb_60900=T pbc="F F F"
C        0.02660000       1.45670000      -0.20360000
C        0.03170000      -0.06070000       0.06950000
C        0.85720000      -0.36080000       1.31050000
O        1.83080000      -1.06680000       1.33250000
C       -1.37310000      -0.58300000       0.22900000
C       -2.41120000      -0.30530000       1.33880000
C       -3.04550000      -1.70750000       1.02620000
C       -1.98530000      -1.89230000      -0.06570000
O       -2.12650000      -0.78760000      -0.97390000
H        1.03970000       1.82350000      -0.39060000
H       -0.58890000       1.67320000      -1.08040000
H       -0.38520000       2.01150000       0.64630000
H        0.49660000      -0.59290000      -0.76560000
H        0.49920000       0.14910000       2.23620000
H       -1.98490000      -0.25680000       2.34370000
H       -3.04040000       0.57060000       1.16690000
H       -2.93700000      -2.40900000       1.85650000
H       -4.07870000      -1.71390000       0.67240000
H       -1.55560000      -2.80400000      -0.46510000
