19
Properties=species:S:1:pos:R:3 gdb_96061=T pbc="F F F"
O       -0.07950000       1.49290000       0.42360000
C       -0.02040000       0.11720000       0.07180000
C        0.71630000      -0.73040000       1.12290000
O       -0.25510000      -1.19560000       2.05580000
C       -1.54290000      -0.72390000       1.67520000
C       -1.44800000      -0.44510000       0.16780000
C       -2.54580000       0.45950000      -0.40290000
C       -3.89540000      -0.22390000      -0.40180000
O       -4.90340000       0.23280000       0.07090000
H        0.81970000       1.82580000       0.50060000
H        0.41200000      -0.01020000      -0.93070000
H        1.21590000      -1.59360000       0.66110000
H        1.48010000      -0.13320000       1.64030000
H       -2.27850000      -1.49280000       1.93170000
H       -1.79870000       0.19780000       2.21820000
H       -1.45460000      -1.40720000      -0.36160000
H       -2.61410000       1.40130000       0.14380000
H       -2.30500000       0.69360000      -1.45020000
H       -3.89960000      -1.22610000      -0.89560000
