12
Properties=species:S:1:pos:R:3 gdb_21483=T pbc="F F F"
N       -0.10360000       1.31040000       0.20350000
C        0.07350000      -0.03800000       0.04790000
N        1.24700000      -0.54050000      -0.06420000
C       -1.19270000      -0.80210000       0.06100000
C       -1.44520000      -2.14100000       0.06880000
O       -2.75490000      -2.34070000       0.07130000
N       -3.36020000      -1.03810000       0.06420000
N       -2.43340000      -0.19430000       0.06050000
H        0.70260000       1.88550000       0.02030000
H       -1.01290000       1.70360000       0.02820000
H        1.21350000      -1.55470000      -0.13330000
H       -0.81480000      -3.01500000       0.07710000
