19
Properties=species:S:1:pos:R:3 gdb_49064=T pbc="F F F"
O       -0.97720000       1.52720000       0.52370000
C        0.04370000       1.02430000       0.12730000
C        1.34760000       1.76350000      -0.03160000
C        1.53280000       3.05560000       0.81160000
C        1.76690000       3.88570000      -0.48030000
C        1.51520000       2.62310000      -1.35280000
C        2.72970000       1.98350000      -2.03180000
C        3.44250000       1.27840000      -0.86770000
O        2.40000000       0.82140000      -0.00780000
H        0.09780000      -0.04140000      -0.18690000
H        0.62020000       3.31540000       1.35090000
H        2.36830000       3.00100000       1.51240000
H        1.04990000       4.69290000      -0.64090000
H        2.77440000       4.29870000      -0.58360000
H        0.64030000       2.68120000      -2.00120000
H        2.40490000       1.24720000      -2.77350000
H        3.36970000       2.71500000      -2.53360000
H        4.03200000       0.40850000      -1.16750000
H        4.10630000       1.97370000      -0.33190000
