17
Properties=species:S:1:pos:R:3 gdb_107088=T pbc="F F F"
O        0.12220000       1.35330000      -0.37130000
C        0.07590000       0.02260000       0.11860000
C       -1.33320000      -0.48410000       0.20720000
C       -2.37580000      -0.12770000       1.27950000
C       -2.96370000      -1.58290000       1.13990000
C       -4.35960000      -1.71150000       0.74510000
N       -5.46120000      -1.78660000       0.40070000
C       -1.90870000      -1.86430000       0.04090000
N       -1.98610000      -0.89380000      -1.03470000
H       -0.24040000       1.33250000      -1.26420000
H        0.66280000      -0.66380000      -0.50880000
H        0.53490000       0.04950000       1.11240000
H       -1.95250000       0.03770000       2.27200000
H       -3.05100000       0.69600000       1.03620000
H       -2.78320000      -2.17000000       2.04330000
H       -1.44280000      -2.82480000      -0.14550000
H       -2.92060000      -0.51040000      -1.16870000
