15
Properties=species:S:1:pos:R:3 gdb_20934=T pbc="F F F"
C        0.02930000       1.49350000       0.12920000
C       -0.00650000      -0.00080000      -0.17050000
N       -1.36470000      -0.51820000      -0.02370000
C       -1.63690000      -1.84400000       0.02170000
C       -2.83940000      -2.52890000      -0.06060000
N       -2.54000000      -3.84440000       0.09910000
N       -1.33000000      -4.06840000       0.26290000
O       -0.65200000      -2.69490000       0.21210000
H        1.04770000       1.87500000       0.02010000
H       -0.60880000       2.05390000      -0.56390000
H       -0.31080000       1.69720000       1.14850000
H        0.38280000      -0.19690000      -1.18030000
H        0.63230000      -0.54830000       0.52710000
H       -2.10970000       0.06720000      -0.36800000
H       -3.84200000      -2.16970000      -0.21050000
