21
Properties=species:S:1:pos:R:3 gdb_98838=T pbc="F F F"
C       -0.30730000       1.54320000       0.09050000
C       -0.35740000       0.06150000      -0.27180000
C        0.77960000      -0.38230000      -1.18040000
O        1.54740000       0.39520000      -1.69700000
C        0.92000000      -1.89130000      -1.37960000
O        1.61190000      -2.23730000      -2.58350000
C        2.76100000      -2.71610000      -1.85640000
C        2.03070000      -2.56950000      -0.50290000
C        2.72160000      -1.79370000       0.60810000
H        0.60840000       1.78080000       0.63900000
H       -0.31330000       2.16010000      -0.81110000
H       -1.16330000       1.82160000       0.71130000
H       -0.35350000      -0.57600000       0.62380000
H       -1.29630000      -0.18800000      -0.78780000
H       -0.06740000      -2.36880000      -1.32490000
H        3.04470000      -3.73100000      -2.15720000
H        3.62170000      -2.04630000      -1.97790000
H        1.67710000      -3.53340000      -0.12820000
H        3.06080000      -0.81430000       0.25910000
H        2.05970000      -1.64230000       1.46780000
H        3.59730000      -2.34610000       0.96540000
