17
Properties=species:S:1:pos:R:3 gdb_13341=T pbc="F F F"
O       -0.12000000       0.12800000      -0.79680000
C       -0.05730000       1.17830000      -0.19310000
N        1.07010000       1.71140000       0.34900000
C        2.38090000       1.07990000       0.27310000
C        3.41950000       1.89280000      -0.55160000
C        4.76430000       1.74180000       0.20160000
C        4.33740000       1.29390000       1.57990000
C        3.05710000       0.93250000       1.61910000
H       -0.93990000       1.82580000      -0.01710000
H        0.99630000       2.59640000       0.82750000
H        2.18700000       0.10130000      -0.17860000
H        3.46680000       1.56710000      -1.59290000
H        3.11300000       2.94430000      -0.55570000
H        5.40500000       0.98150000      -0.26550000
H        5.35060000       2.66750000       0.21460000
H        5.02780000       1.23670000       2.41440000
H        2.52980000       0.53560000       2.47930000
