25
Properties=species:S:1:pos:R:3 gdb_113185=T pbc="F F F"
C        0.65770000      -0.64910000       1.57850000
C       -0.77450000      -0.12070000       1.72970000
C       -0.75890000       1.41440000       1.59440000
C       -1.85430000      -0.72870000       0.81350000
C       -3.25730000      -0.49970000       1.36860000
C       -1.73210000      -0.66100000      -0.69340000
C       -1.74680000      -2.00630000      -0.00840000
C       -0.59390000      -2.97380000      -0.12810000
O       -0.90470000      -3.83090000      -1.22430000
H        1.31520000      -0.12470000       2.28010000
H        0.73050000      -1.71650000       1.79840000
H        1.05780000      -0.47370000       0.57390000
H       -1.08520000      -0.35570000       2.75810000
H       -0.41740000       1.70910000       0.59590000
H       -1.74530000       1.85820000       1.75170000
H       -0.07620000       1.85900000       2.32610000
H       -3.45780000       0.56170000       1.54650000
H       -4.02180000      -0.86350000       0.67590000
H       -3.39240000      -1.02670000       2.32080000
H       -2.58990000      -0.34620000      -1.27920000
H       -0.77920000      -0.34540000      -1.10940000
H       -2.68600000      -2.55150000      -0.07110000
H        0.35390000      -2.45100000      -0.30310000
H       -0.48450000      -3.55910000       0.80030000
H       -0.18970000      -4.46810000      -1.31220000
