16
Properties=species:S:1:pos:R:3 gdb_43447=T pbc="F F F"
N       -0.11220000       1.31950000       0.09340000
C       -0.01440000       0.05770000      -0.02100000
N        1.12410000      -0.76740000      -0.04620000
C        0.82520000      -2.11630000      -0.03770000
O        1.60490000      -3.03880000      -0.02540000
C       -0.67650000      -2.17220000      -0.04910000
C       -1.36790000      -3.32230000      -0.73410000
C       -1.38450000      -3.22590000       0.76940000
N       -1.09170000      -0.80130000      -0.15700000
H        0.79960000       1.76230000       0.17370000
H        2.06760000      -0.41570000      -0.03070000
H       -2.28050000      -3.09090000      -1.27190000
H       -0.72830000      -4.06950000      -1.19070000
H       -0.75850000      -3.90620000       1.33630000
H       -2.31010000      -2.93350000       1.25420000
H       -1.97710000      -0.48090000       0.20080000
