17
Properties=species:S:1:pos:R:3 gdb_69137=T pbc="F F F"
C       -0.04050000       1.50490000      -0.01770000
C       -0.01970000      -0.00300000       0.01530000
C       -0.84950000      -0.80040000       0.97420000
C        0.67060000      -0.80490000       1.11340000
C        1.50350000      -1.87280000       0.45700000
O        2.38440000      -2.51140000       0.97710000
C        1.20110000      -1.87180000      -1.03720000
O       -0.19030000      -2.07670000      -1.35150000
C        0.29760000      -0.73730000      -1.29140000
H        0.89600000       1.91070000      -0.41670000
H       -0.86010000       1.87420000      -0.64500000
H       -0.17920000       1.91500000       0.98670000
H       -1.37320000      -0.25130000       1.75000000
H       -1.34620000      -1.69330000       0.62020000
H        1.09870000      -0.34220000       1.99490000
H        1.92050000      -2.29070000      -1.73430000
H        0.28780000      -0.18900000      -2.22980000
