20
Properties=species:S:1:pos:R:3 gdb_56647=T pbc="F F F"
C        0.02120000       1.46980000      -0.20760000
C        0.14800000      -0.02980000      -0.06820000
C        1.50640000      -0.70390000      -0.04030000
C        0.66600000      -0.67230000       1.20650000
N        1.12930000       0.08570000       2.34500000
C        0.02450000      -1.99650000       1.65390000
N        0.88330000      -2.86000000       2.46280000
C       -1.20710000      -1.68870000       2.40930000
N       -2.16220000      -1.39230000       2.98820000
H        0.79830000       1.99380000       0.35720000
H        0.11050000       1.77630000      -1.25500000
H       -0.94910000       1.81950000       0.16120000
H       -0.63290000      -0.58830000      -0.58010000
H        1.63830000      -1.64600000      -0.56360000
H        2.38540000      -0.06550000      -0.06520000
H        1.90010000       0.69760000       2.11130000
H        0.38530000       0.65200000       2.74170000
H       -0.28220000      -2.55630000       0.76260000
H        1.64910000      -3.18260000       1.87720000
H        1.30510000      -2.27460000       3.18160000
