20
Properties=species:S:1:pos:R:3 gdb_108719=T pbc="F F F"
C       -0.13830000       1.46230000       0.08670000
N       -0.01050000       0.02540000      -0.03730000
C        0.63860000      -0.57610000      -1.05580000
C        1.24140000       0.00630000      -2.12890000
C        1.81660000      -1.00570000      -2.99800000
O        2.46490000      -0.84860000      -4.01480000
C        1.46880000      -2.39730000      -2.41110000
C        2.70700000      -3.28930000      -2.31070000
C        0.76150000      -2.08600000      -1.07670000
H        0.84140000       1.94820000       0.17870000
H       -0.64720000       1.88630000      -0.78710000
H       -0.72700000       1.69580000       0.97550000
H       -0.36030000      -0.55020000       0.70890000
H        1.31650000       1.06530000      -2.33190000
H        0.75990000      -2.86000000      -3.10840000
H        3.41980000      -2.88910000      -1.58040000
H        2.44860000      -4.30930000      -2.00850000
H        3.20830000      -3.32580000      -3.28130000
H        1.35060000      -2.42600000      -0.21470000
H       -0.22380000      -2.55950000      -0.98940000
