19
Properties=species:S:1:pos:R:3 gdb_95277=T pbc="F F F"
O        0.06830000       1.43060000      -0.10570000
C        0.04300000       0.02290000       0.03670000
C        0.52510000      -0.49850000       1.39850000
O       -0.06410000      -1.78100000       1.53030000
C       -1.34300000      -1.78960000       0.87560000
C       -2.51300000      -1.68540000       1.88580000
C       -2.98550000      -0.26050000       1.74520000
C       -2.39900000       0.37300000       0.73070000
C       -1.40590000      -0.50200000       0.00280000
H        0.98700000       1.71320000      -0.14430000
H        0.62250000      -0.46120000      -0.76340000
H        1.61140000      -0.61860000       1.46670000
H        0.19610000       0.19520000       2.18750000
H       -1.38860000      -2.71600000       0.29610000
H       -3.31460000      -2.39850000       1.65050000
H       -2.15820000      -1.93260000       2.89280000
H       -3.73820000       0.17160000       2.39630000
H       -2.58260000       1.39700000       0.43110000
H       -1.72260000      -0.69700000      -1.02730000
