18
Properties=species:S:1:pos:R:3 gdb_93609=T pbc="F F F"
C       -0.07280000       1.58370000       0.18310000
C        0.21250000       0.10220000      -0.05660000
C        1.28920000      -0.25910000      -1.09780000
N        1.84140000      -1.57150000      -0.70410000
C        1.88270000      -1.55470000       0.76820000
C        3.14100000      -1.01030000       1.27380000
C        4.15330000      -0.52110000       1.69810000
C        0.70800000      -0.61690000       1.20510000
O        0.27330000      -0.50100000       2.31710000
H        0.85160000       2.12590000       0.40760000
H       -0.53230000       2.04560000      -0.69570000
H       -0.74880000       1.70410000       1.03380000
H       -0.72370000      -0.40700000      -0.33200000
H        0.91130000      -0.30380000      -2.12120000
H        2.09970000       0.47950000      -1.07390000
H        1.19760000      -2.30170000      -0.99350000
H        1.72160000      -2.55670000       1.17850000
H        5.05660000      -0.10710000       2.07310000
