21
Properties=species:S:1:pos:R:3 gdb_90489=T pbc="F F F"
O        0.43930000       1.31660000       0.15020000
C        0.13340000      -0.05070000       0.29230000
C       -0.10680000      -0.64850000       1.71870000
C       -1.45260000      -1.20270000       1.23420000
C       -2.37310000      -0.12680000       0.71170000
C       -2.57140000       1.26990000       1.24920000
C       -3.74770000       1.55870000       2.15310000
C       -2.35300000       1.63810000       2.70500000
C       -1.23290000      -0.58610000      -0.15980000
H       -0.19420000       1.81270000       0.67810000
H        0.94020000      -0.58220000      -0.21870000
H        0.61420000      -1.43050000       1.96790000
H       -0.12920000       0.07340000       2.53840000
H       -1.82610000      -2.19190000       1.46990000
H       -3.30610000      -0.56130000       0.35360000
H       -2.36320000       2.05820000       0.52920000
H       -4.30350000       2.47670000       1.99870000
H       -4.35590000       0.71270000       2.45740000
H       -2.04360000       0.84840000       3.37930000
H       -1.93950000       2.61350000       2.93940000
H       -1.42610000      -1.01810000      -1.13530000
