18
Properties=species:S:1:pos:R:3 gdb_44942=T pbc="F F F"
N       -0.05850000       1.28460000      -0.12990000
C       -0.03500000       0.02700000      -0.05470000
O        1.10900000      -0.74270000      -0.02480000
C        0.72570000      -2.13110000       0.06380000
C       -0.63740000      -2.15920000      -0.63390000
C       -1.22760000      -0.90700000       0.03530000
C       -1.49660000      -1.26250000       1.51790000
C       -0.19120000      -1.69690000       2.20710000
O        0.62740000      -2.54980000       1.39600000
H        0.89130000       1.66070000      -0.16550000
H        1.52010000      -2.72170000      -0.39240000
H       -0.52250000      -2.03520000      -1.71440000
H       -1.18390000      -3.08040000      -0.42640000
H       -2.10530000      -0.47980000      -0.44720000
H       -1.91140000      -0.40380000       2.05470000
H       -2.23740000      -2.06870000       1.55130000
H        0.39000000      -0.80840000       2.48500000
H       -0.39290000      -2.26300000       3.11920000
