16
Properties=species:S:1:pos:R:3 gdb_74211=T pbc="F F F"
N        0.04720000       1.40680000       0.27460000
C       -0.00710000       0.05810000      -0.03050000
C       -1.20160000      -0.55660000      -0.25860000
C       -1.52570000      -1.98830000      -0.26200000
O       -2.61190000      -2.40050000       0.06680000
O       -0.57790000      -2.90230000      -0.63620000
C        0.52610000      -2.46630000      -1.43260000
C        1.56940000      -1.75070000      -0.62560000
C        1.29540000      -0.61040000       0.01360000
H        0.89160000       1.89700000       0.02280000
H       -0.79290000       1.94120000       0.11270000
H       -2.09960000       0.05330000      -0.21730000
H        0.92750000      -3.37630000      -1.88200000
H        0.15870000      -1.81320000      -2.23690000
H        2.56180000      -2.18500000      -0.55720000
H        2.06710000      -0.10750000       0.59110000
