23
Properties=species:S:1:pos:R:3 gdb_116464=T pbc="F F F"
C       -0.00720000       1.40950000      -0.15220000
O       -0.01720000       0.03610000       0.15470000
C       -1.28510000      -0.59370000       0.06780000
C       -1.74310000      -0.79620000      -1.38570000
O       -0.88790000      -1.65630000      -2.10830000
C       -0.80150000      -2.94600000      -1.52430000
C       -0.28510000      -2.88670000      -0.08590000
C       -1.16960000      -1.96040000       0.76680000
C       -0.67960000      -1.83990000       2.21130000
H        0.99280000       1.78330000       0.08220000
H       -0.20970000       1.61060000      -1.21390000
H       -0.74290000       1.96550000       0.45080000
H       -2.04030000       0.02510000       0.58520000
H       -2.77640000      -1.18830000      -1.37090000
H       -1.75890000       0.15050000      -1.93330000
H       -1.79310000      -3.43350000      -1.54650000
H       -0.13030000      -3.52430000      -2.16610000
H       -0.26580000      -3.89640000       0.34130000
H        0.74210000      -2.50680000      -0.08770000
H       -2.18570000      -2.38160000       0.77770000
H        0.31800000      -1.39540000       2.24470000
H       -1.34910000      -1.20710000       2.80450000
H       -0.63650000      -2.82400000       2.68980000
