12
Properties=species:S:1:pos:R:3 gdb_132694=T pbc="F F F"
O        0.06910000       1.36580000      -0.07350000
C        0.05360000       0.00930000      -0.04290000
C        0.02400000      -0.73420000      -1.21660000
N        0.00790000      -2.07210000      -1.23670000
C        0.02080000      -2.70060000      -0.08680000
F        0.00440000      -4.03080000      -0.13170000
C        0.05020000      -2.08840000       1.16540000
C        0.06630000      -0.70990000       1.15540000
F        0.09480000      -0.00950000       2.29680000
H        0.08860000       1.68980000       0.83510000
H        0.01320000      -0.21780000      -2.17170000
H        0.05990000      -2.65340000       2.08770000
