18
Properties=species:S:1:pos:R:3 gdb_69346=T pbc="F F F"
C        0.14440000       1.49600000      -0.02410000
C        0.05490000       0.01050000       0.07790000
C       -0.94160000      -0.80950000       0.83070000
C        0.54220000      -1.02180000       1.07240000
C        1.16310000      -1.72680000      -0.14420000
C        0.80870000      -3.16980000      -0.47210000
O        0.54330000      -0.76240000      -1.04340000
C        2.62580000      -1.53500000      -0.16540000
N        3.77290000      -1.39580000      -0.16360000
H        1.16940000       1.81220000      -0.23790000
H       -0.50280000       1.86240000      -0.82870000
H       -0.18120000       1.96170000       0.91030000
H       -1.44230000      -0.30280000       1.65020000
H       -1.54620000      -1.54800000       0.31320000
H        1.01830000      -0.91450000       2.03690000
H       -0.27060000      -3.31730000      -0.40350000
H        1.13300000      -3.41340000      -1.48750000
H        1.30760000      -3.85040000       0.22380000
