21
Properties=species:S:1:pos:R:3 gdb_26257=T pbc="F F F"
C        0.01280000       1.59000000       0.07370000
C       -0.04180000       0.05870000      -0.03200000
C        0.80950000      -0.59010000       1.08050000
C       -1.45980000      -0.43750000      -0.01040000
C       -2.61480000       0.08760000       0.51910000
N       -3.68490000      -0.75390000       0.32300000
C       -3.18860000      -1.78120000      -0.32210000
N       -1.84750000      -1.65450000      -0.55350000
C       -1.02470000      -2.59900000      -1.28000000
H        1.04720000       1.94090000       0.00660000
H       -0.56630000       2.06470000      -0.72300000
H       -0.38990000       1.93130000       1.03310000
H        0.40540000      -0.22130000      -0.99680000
H        1.85020000      -0.25410000       1.01860000
H        0.41820000      -0.31640000       2.06570000
H        0.80490000      -1.68240000       1.01590000
H       -2.73490000       1.03110000       1.02950000
H       -3.73770000      -2.64980000      -0.65730000
H       -0.57280000      -2.13440000      -2.16230000
H       -0.22540000      -3.00290000      -0.65150000
H       -1.65380000      -3.42700000      -1.61240000
