27
Properties=species:S:1:pos:R:3 gdb_59779=T pbc="F F F"
C       -0.05300000       1.56220000      -0.06050000
C        0.02260000       0.02640000      -0.03470000
C        0.68630000      -0.46670000      -1.33140000
C        0.73180000      -0.51120000       1.23600000
C        0.06720000      -0.01220000       2.53570000
C        0.74730000      -0.55660000       3.80090000
C        0.80950000      -2.08780000       3.79870000
C        1.49010000      -2.59660000       2.52330000
C        0.80980000      -2.05170000       1.25840000
H        0.94920000       2.00510000      -0.00530000
H       -0.51300000       1.90770000      -0.99220000
H       -0.64370000       1.96800000       0.76430000
H       -1.00860000      -0.35870000      -0.01990000
H        1.74220000      -0.17090000      -1.36850000
H        0.63960000      -1.55280000      -1.44110000
H        0.19250000      -0.02900000      -2.20520000
H        1.76480000      -0.12520000       1.22030000
H        0.06970000       1.08110000       2.57070000
H       -0.98920000      -0.32060000       2.53280000
H        1.76880000      -0.15530000       3.86150000
H        0.22020000      -0.19460000       4.69130000
H        1.33810000      -2.45180000       4.68720000
H       -0.21050000      -2.49370000       3.85370000
H        2.54380000      -2.28360000       2.52870000
H        1.49380000      -3.69250000       2.50060000
H       -0.21100000      -2.45780000       1.19440000
H        1.34450000      -2.42010000       0.37810000
