21
Properties=species:S:1:pos:R:3 gdb_52430=T pbc="F F F"
O       -0.71890000       0.87460000       0.82930000
C        0.01310000       1.01930000      -0.11520000
C        1.29050000       1.82670000      -0.11200000
C        1.28450000       2.91600000      -1.19910000
C        2.61270000       3.67520000      -1.28940000
C        2.60590000       4.76540000      -2.36480000
C        3.94730000       5.52190000      -2.44740000
C        3.95400000       6.56060000      -3.47010000
C        3.93220000       7.41000000      -4.32030000
H       -0.22430000       0.54770000      -1.09910000
H        1.43290000       2.25240000       0.88570000
H        2.12030000       1.13120000      -0.30740000
H        1.05880000       2.45880000      -2.17200000
H        0.47070000       3.62370000      -0.99680000
H        2.84160000       4.12420000      -0.31340000
H        3.42380000       2.96260000      -1.49390000
H        2.38590000       4.32420000      -3.34410000
H        1.80380000       5.48510000      -2.16350000
H        4.17430000       5.96960000      -1.47070000
H        4.75710000       4.80750000      -2.64700000
H        3.92500000       8.16370000      -5.06800000
