20
Properties=species:S:1:pos:R:3 gdb_74139=T pbc="F F F"
C       -0.01880000       1.54910000       0.02120000
C        0.00430000       0.00750000       0.00570000
C       -1.43660000      -0.54150000       0.02900000
C        0.80310000      -0.54170000      -1.20210000
C        1.99060000      -1.33280000      -0.62010000
O        2.83110000      -1.90240000      -1.28690000
C        1.88740000      -1.25760000       0.82760000
C        0.80450000      -0.52810000       1.19530000
N        0.41620000      -0.21070000       2.45890000
H        0.99700000       1.95470000      -0.00150000
H       -0.55760000       1.92740000      -0.85340000
H       -0.51600000       1.94190000       0.91460000
H       -1.98400000      -0.19940000      -0.85490000
H       -1.44060000      -1.63570000       0.02950000
H       -1.99690000      -0.20070000       0.90770000
H        0.20330000      -1.20370000      -1.83420000
H        1.18080000       0.25580000      -1.84910000
H        2.59490000      -1.73130000       1.49660000
H        0.84130000      -0.68770000       3.23680000
H       -0.51610000       0.13140000       2.61750000
