19
Properties=species:S:1:pos:R:3 gdb_72867=T pbc="F F F"
C       -0.10440000       1.58710000       0.39350000
C        0.11440000       0.13430000       0.06320000
C       -1.11950000      -0.77000000      -0.23620000
C       -0.55930000      -1.81780000       0.79190000
C       -0.45380000      -3.24750000       0.34000000
O        0.55190000      -3.91270000       0.35430000
C        0.71160000      -0.96090000       1.00440000
C        1.80190000      -1.07770000      -0.07580000
O        1.16360000      -0.07330000      -0.90640000
H        0.82600000       2.05180000       0.73260000
H       -0.44880000       2.12600000      -0.49650000
H       -0.86140000       1.70310000       1.17580000
H       -2.09090000      -0.34830000       0.03140000
H       -1.14360000      -1.10200000      -1.27660000
H       -1.18870000      -1.82450000       1.69100000
H       -1.41610000      -3.67550000      -0.02880000
H        1.03590000      -0.78170000       2.02850000
H        2.79210000      -0.74210000       0.25520000
H        1.89960000      -2.04240000      -0.57880000
