21
Properties=species:S:1:pos:R:3 gdb_74333=T pbc="F F F"
C       -0.10900000       1.54940000      -0.08870000
C       -0.01390000       0.06010000      -0.01930000
C       -0.96580000      -0.83590000       0.22610000
C       -0.40590000      -2.23380000       0.20190000
O        0.99450000      -2.04980000      -0.05500000
C        1.28350000      -0.67320000      -0.25240000
C       -0.60990000      -3.01470000       1.48130000
C       -1.84820000      -3.86260000       1.64420000
C       -0.50190000      -4.51650000       1.46690000
H        0.55800000       2.02340000       0.64250000
H        0.19650000       1.92050000      -1.07520000
H       -1.12700000       1.89680000       0.10420000
H       -2.01000000      -0.62980000       0.42660000
H       -0.84270000      -2.82190000      -0.62630000
H        1.66840000      -0.50490000      -1.27290000
H        2.07630000      -0.35260000       0.44280000
H       -0.24440000      -2.50440000       2.36790000
H       -2.32010000      -3.89930000       2.61960000
H       -2.54620000      -3.90770000       0.81390000
H       -0.29040000      -4.99550000       0.51660000
H       -0.04800000      -5.00540000       2.32140000
