20
Properties=species:S:1:pos:R:3 gdb_105497=T pbc="F F F"
C        0.87160000      -0.00700000      -1.26190000
O        0.04800000       0.06030000      -0.11000000
C        0.49940000      -0.66290000       0.99760000
C       -0.60410000      -0.72730000       2.09840000
C       -0.41150000      -2.26370000       2.20010000
C        0.41700000      -2.22620000       0.88560000
C        1.82170000      -0.08120000       1.54280000
N        2.52610000      -0.88120000       2.39910000
O        2.20280000       1.03470000       1.25090000
H        1.02810000      -1.04670000      -1.58710000
H        0.34030000       0.52660000      -2.05330000
H        1.84130000       0.47150000      -1.09240000
H       -0.44370000      -0.13100000       2.99840000
H       -1.55920000      -0.44910000       1.64910000
H        0.17180000      -2.56210000       3.07640000
H       -1.31680000      -2.87310000       2.18570000
H       -0.18860000      -2.49300000       0.01690000
H        1.35110000      -2.79180000       0.84600000
H        2.21330000      -1.78840000       2.69270000
H        3.33690000      -0.48260000       2.84370000
