18
Properties=species:S:1:pos:R:3 gdb_18603=T pbc="F F F"
O        0.32490000       1.18300000      -0.54440000
C        0.08810000      -0.12220000      -0.07510000
C        0.24260000      -0.34630000       1.45700000
C       -1.27780000      -0.63320000       1.58240000
C       -2.13030000       0.55500000       2.04920000
O       -2.23430000       1.42940000       0.92190000
C       -2.40680000       0.57220000      -0.21260000
C       -1.41760000      -0.56220000       0.02030000
H       -0.21970000       1.77700000      -0.00930000
H        0.70550000      -0.77780000      -0.69380000
H        0.87610000      -1.19830000       1.71630000
H        0.60650000       0.53190000       2.00030000
H       -1.55330000      -1.56370000       2.08050000
H       -3.13300000       0.21620000       2.35370000
H       -1.68970000       1.12540000       2.87170000
H       -3.44100000       0.19740000      -0.25820000
H       -2.19740000       1.16200000      -1.10760000
H       -1.67060000      -1.48250000      -0.50800000
