12
Properties=species:S:1:pos:R:3 gdb_131252=T pbc="F F F"
O        0.26750000       1.38780000       0.26680000
C        0.16490000       0.05520000       0.05990000
C        0.11840000      -0.78140000      -1.02510000
N        0.00380000      -2.12950000      -0.64730000
C       -0.01470000      -2.05820000       0.64080000
O       -0.10300000      -2.92700000       1.66900000
N       -0.06490000      -2.17240000       2.86730000
C        0.04090000      -0.92680000       2.51990000
N        0.07720000      -0.78340000       1.15890000
H        0.31920000       1.83020000      -0.58660000
H        0.16010000      -0.50240000      -2.06680000
H        0.09210000      -0.12090000       3.23400000
