16
Properties=species:S:1:pos:R:3 gdb_24976=T pbc="F F F"
N       -0.08560000       1.23850000       0.07240000
C       -0.00790000      -0.01180000       0.01470000
O        1.14150000      -0.79150000      -0.02860000
C        0.69100000      -2.09490000      -0.10140000
C       -0.62830000      -2.11090000      -0.09560000
C       -1.24070000      -3.46230000      -0.08500000
C        0.05740000      -4.33830000      -0.28370000
C        1.33610000      -3.43160000      -0.09510000
O       -1.11750000      -0.82490000      -0.01920000
H        0.84100000       1.65590000       0.08770000
H       -1.74840000      -3.68320000       0.86200000
H       -1.96920000      -3.63030000      -0.88510000
H        0.07040000      -5.18260000       0.40780000
H        0.05850000      -4.74990000      -1.29510000
H        2.06210000      -3.58370000      -0.90080000
H        1.85600000      -3.64100000       0.84810000
