13
Properties=species:S:1:pos:R:3 gdb_4765=T pbc="F F F"
C        0.02570000       1.38860000       0.07190000
N        0.18140000      -0.05520000       0.04640000
C        0.63920000      -0.60100000      -0.97930000
O        1.04450000      -0.04200000      -2.15770000
C        1.45820000      -1.08900000      -2.99420000
C        1.31150000      -2.22440000      -2.31890000
O        1.55950000      -3.49830000      -2.62520000
O        0.80970000      -1.97030000      -1.06600000
H        0.76670000       1.82730000       0.75090000
H        0.13130000       1.86930000      -0.90810000
H       -0.96200000       1.63300000       0.47600000
H        1.80990000      -0.84310000      -3.97720000
H        1.27270000      -4.04890000      -1.88670000
