22
Properties=species:S:1:pos:R:3 gdb_88692=T pbc="F F F"
C        0.31600000       1.71220000      -0.49280000
N        0.06580000       0.30150000      -0.22950000
C        1.20150000      -0.55060000       0.07780000
C        0.19340000      -0.22690000       1.13390000
C        0.58840000       0.63250000       2.28870000
O       -0.46930000       1.22590000       3.06280000
C        0.39210000       0.27520000       3.71010000
C       -0.26660000      -1.01970000       4.13730000
C        1.32450000       0.87860000       4.74110000
H        1.21110000       2.12250000      -0.00060000
H        0.44030000       1.84440000      -1.57220000
H       -0.55080000       2.29790000      -0.17260000
H        1.21700000      -1.53150000      -0.39050000
H        2.18110000      -0.08000000       0.17340000
H       -0.56720000      -0.96800000       1.36210000
H        1.40940000       1.32040000       2.08230000
H       -1.01060000      -1.35590000       3.41440000
H        0.47980000      -1.81060000       4.26870000
H       -0.77390000      -0.87840000       5.09800000
H        0.78090000       1.08490000       5.66980000
H        2.14290000       0.19030000       4.97850000
H        1.75080000       1.81770000       4.38010000
