18
Properties=species:S:1:pos:R:3 gdb_30925=T pbc="F F F"
C        0.11650000       1.34240000      -0.24770000
O       -0.29510000       0.04520000       0.19830000
C        0.53090000      -0.51930000       1.11190000
C        1.87630000      -0.80350000       1.13980000
N        2.84510000      -0.48670000       0.16310000
N        2.19610000      -1.41890000       2.32490000
C        1.06640000      -1.51890000       2.99270000
N        0.01360000      -0.99320000       2.30510000
C       -1.37740000      -0.95530000       2.70130000
H        1.13400000       1.31230000      -0.65000000
H       -0.58860000       1.63660000      -1.02750000
H        0.07970000       2.06640000       0.57530000
H        2.70850000      -1.02020000      -0.68970000
H        3.76170000      -0.71990000       0.53010000
H        0.94290000      -1.96480000       3.96840000
H       -1.45720000      -1.31170000       3.72990000
H       -1.76670000       0.06510000       2.64840000
H       -1.99080000      -1.59160000       2.05590000
