15
Properties=species:S:1:pos:R:3 gdb_28687=T pbc="F F F"
N        0.23330000       1.29650000      -0.05010000
C       -0.04680000      -0.05820000      -0.01180000
C       -1.18540000      -0.78380000       0.18650000
C       -0.76740000      -2.15740000       0.20680000
C        0.57450000      -2.16680000       0.02190000
C        1.60130000      -3.24490000      -0.06470000
C        2.21710000      -3.36250000      -1.39460000
N        2.70180000      -3.44760000      -2.43980000
O        1.03100000      -0.87260000      -0.11070000
H        1.02850000       1.51860000      -0.63550000
H       -0.56830000       1.85940000      -0.29690000
H       -2.18510000      -0.39830000       0.30160000
H       -1.39720000      -3.02450000       0.33460000
H        2.40490000      -3.08810000       0.66680000
H        1.12710000      -4.19910000       0.18480000
