15
Properties=species:S:1:pos:R:3 gdb_46638=T pbc="F F F"
O       -0.03180000      -0.05180000       0.00220000
C        0.01790000       1.14250000       0.00870000
O       -1.09040000       1.96120000       0.02860000
C       -0.71310000       3.35110000       0.03150000
C        0.79020000       3.30910000       0.01020000
N        1.73530000       4.15370000       0.00090000
C        2.98260000       3.34670000      -0.02070000
C        2.56660000       1.82490000      -0.02330000
N        1.11790000       1.96930000      -0.00100000
H       -1.13170000       3.84460000      -0.85040000
H       -1.10680000       3.83410000       0.93060000
H        3.56790000       3.60580000      -0.90800000
H        3.59180000       3.59610000       0.85320000
H        2.89620000       1.29100000      -0.91850000
H        2.92260000       1.28070000       0.85520000
