18
Properties=species:S:1:pos:R:3 gdb_6380=T pbc="F F F"
C        0.08980000       1.37100000       0.09720000
O        0.21090000      -0.05690000       0.00780000
C        0.51120000      -0.53960000      -1.20730000
O        0.69720000       0.17170000      -2.17190000
C        0.56990000      -2.05090000      -1.21560000
C        1.45280000      -2.59760000      -2.35330000
C        1.51440000      -4.11940000      -2.32980000
O        0.94960000      -2.21160000      -3.61750000
H        1.03270000       1.85350000      -0.17100000
H       -0.69410000       1.73300000      -0.57240000
H       -0.16580000       1.58040000       1.13550000
H        0.90710000      -2.40090000      -0.23570000
H       -0.45540000      -2.41860000      -1.35470000
H        2.47240000      -2.19970000      -2.20990000
H        2.13230000      -4.47680000      -3.15740000
H        1.94200000      -4.48380000      -1.39070000
H        0.51160000      -4.54300000      -2.44730000
H        0.88110000      -1.24630000      -3.59160000
