21
Properties=species:S:1:pos:R:3 gdb_62581=T pbc="F F F"
C        0.01890000       1.46100000      -0.06750000
C       -0.04600000      -0.06400000       0.02390000
C       -1.34700000      -0.51150000       0.68260000
C        0.67090000      -0.69290000      -1.14950000
C        1.31560000      -0.66210000       0.26900000
C        1.40480000      -2.20520000       0.21890000
O        0.31010000      -3.01210000       0.73580000
C       -0.24930000      -3.17060000      -0.59870000
C        0.81630000      -2.23170000      -1.19610000
H        0.93670000       1.80370000      -0.55520000
H       -0.83220000       1.84780000      -0.63930000
H       -0.02020000       1.90870000       0.93150000
H       -2.19260000      -0.38840000      -0.00450000
H       -1.31070000      -1.53540000       1.04130000
H       -1.54330000       0.12960000       1.55000000
H        0.92520000      -0.07560000      -2.00450000
H        2.13340000      -0.04600000       0.62910000
H        2.38200000      -2.61930000       0.47990000
H       -0.15770000      -4.21110000      -0.93320000
H       -1.29830000      -2.86440000      -0.65570000
H        1.39070000      -2.59360000      -2.04770000
