15
Properties=species:S:1:pos:R:3 gdb_124015=T pbc="F F F"
C        0.11960000       1.50840000      -0.16950000
N        1.51940000       1.47790000       0.32220000
C        1.52310000      -0.00010000       0.44940000
C       -0.01540000      -0.01990000       0.05450000
N        0.39970000      -0.82500000      -1.10920000
N        0.15560000      -1.08580000      -2.41850000
C        1.40920000      -1.24640000      -2.85230000
N        2.42380000      -1.01780000      -1.94860000
C        1.71550000      -0.75310000      -0.86660000
H       -0.52720000       2.10480000       0.48110000
H       -0.03130000       1.81810000      -1.20810000
H        2.21900000       1.84430000      -0.31370000
H        1.95010000      -0.39470000       1.37050000
H       -0.83130000      -0.42120000       0.65110000
H        1.60650000      -1.55890000      -3.86790000
