20
Properties=species:S:1:pos:R:3 gdb_110915=T pbc="F F F"
C        0.52030000       1.58990000       0.35750000
C        0.03360000       0.14640000       0.25500000
N        0.70530000      -0.52350000      -0.85340000
C        1.95780000      -1.22640000      -0.73350000
C        2.07270000      -2.05200000       0.56740000
C        0.77610000      -2.82350000       0.13700000
C       -0.39700000      -2.93450000       1.07540000
O       -1.53540000      -2.65830000       0.79250000
C        0.67650000      -1.93680000      -1.12140000
H        1.59280000       1.62730000       0.57670000
H        0.35140000       2.12020000      -0.58380000
H       -0.00640000       2.11860000       1.15770000
H        0.17780000      -0.35570000       1.22370000
H       -1.04030000       0.11300000       0.04790000
H        2.79590000      -0.92170000      -1.35080000
H        2.95410000      -2.69470000       0.58590000
H        2.03080000      -1.49020000       1.50540000
H        1.05190000      -3.85170000      -0.13240000
H       -0.13860000      -3.33020000       2.08700000
H        0.32800000      -2.27420000      -2.09110000
