16
Properties=species:S:1:pos:R:3 gdb_10845=T pbc="F F F"
O       -0.12230000       1.45900000       0.09510000
C        0.01470000       0.05330000       0.00680000
C        0.75170000      -0.52280000       1.22120000
N        0.70230000      -1.97180000       1.16930000
C       -0.39670000      -2.69420000       0.74680000
O       -0.50200000      -3.89320000       0.93820000
N       -1.33100000      -1.97310000       0.03490000
C       -1.39710000      -0.52510000      -0.03810000
H        0.74740000       1.85640000      -0.01130000
H        0.54840000      -0.24520000      -0.90740000
H        1.80000000      -0.20120000       1.21140000
H        0.28940000      -0.10800000       2.13070000
H        1.30680000      -2.50350000       1.77450000
H       -2.15320000      -2.50970000      -0.18780000
H       -1.97410000      -0.08360000       0.78910000
H       -1.88520000      -0.22820000      -0.97140000
