21
Properties=species:S:1:pos:R:3 gdb_110291=T pbc="F F F"
C       -0.39410000       1.58150000       0.16320000
C       -0.04070000       0.09900000       0.08400000
C        0.45370000      -0.50310000      -1.24250000
C        1.83390000      -0.06560000      -1.62690000
O        2.37010000       1.21470000      -1.40700000
C        1.72380000      -1.06070000      -0.52730000
C        1.24210000      -0.46360000       0.80210000
C        2.16720000       0.45590000       1.58090000
O        1.49250000       0.79640000       2.79140000
H        0.42470000       2.21340000      -0.18560000
H       -1.27660000       1.80030000      -0.44910000
H       -0.61800000       1.85990000       1.19730000
H       -0.90190000      -0.47960000       0.43180000
H       -0.18860000      -1.00040000      -1.96200000
H        2.17130000      -0.51570000      -2.56260000
H        1.95480000       1.81790000      -2.03250000
H        2.18160000      -2.03960000      -0.61790000
H        0.94350000      -1.26640000       1.48310000
H        3.10920000      -0.07850000       1.79040000
H        2.41710000       1.34560000       0.99380000
H        2.00950000       1.47170000       3.23960000
