15
Properties=species:S:1:pos:R:3 gdb_37214=T pbc="F F F"
C        0.09510000       1.52010000       0.22110000
N        1.54000000       1.78170000       0.08820000
C        2.04500000       0.71710000      -0.38930000
C        3.18410000       0.01050000       0.32630000
O        2.89240000       0.08400000       1.73410000
C        2.39380000      -1.03270000       1.00650000
C        0.98980000      -1.06560000       0.36350000
C       -0.01740000       0.01830000      -0.04600000
N        1.12280000      -0.30380000      -0.90740000
H       -0.21030000       1.84420000       1.22080000
H       -0.51600000       2.06810000      -0.50930000
H        4.22170000      -0.05320000       0.02520000
H        2.79780000      -1.99870000       1.29700000
H        0.60980000      -2.08040000       0.25360000
H       -0.98530000      -0.36660000      -0.36020000
