15
Properties=species:S:1:pos:R:3 gdb_54676=T pbc="F F F"
N       -0.02970000       1.32880000       0.00960000
C        0.06490000      -0.02060000       0.00270000
O        1.11110000      -0.64770000      -0.00930000
C       -1.25700000      -0.72850000       0.01190000
C       -1.40640000      -2.05640000       0.00950000
C       -2.86170000      -2.39260000       0.02070000
O       -3.52980000      -1.12390000       0.02970000
C       -2.60250000      -0.12040000       0.02470000
N       -2.87760000       1.11890000       0.03020000
H        0.82130000       1.86570000       0.00210000
H       -0.94220000       1.77390000       0.01720000
H       -0.60430000      -2.78130000       0.00090000
H       -3.17880000      -2.95790000      -0.86530000
H       -3.16410000      -2.96260000       0.90890000
H       -3.88340000       1.28230000       0.03890000
