17
Properties=species:S:1:pos:R:3 gdb_2861=T pbc="F F F"
C       -0.38680000       1.41110000       0.38620000
C        0.26410000       0.13730000      -0.16770000
C        1.06330000      -0.58430000       0.89190000
O        0.33620000      -1.30800000       1.89460000
C        1.21530000      -2.04290000       1.02320000
C        0.54230000      -3.07760000       0.15590000
O        0.10860000      -4.17910000       0.93730000
H        0.36700000       2.10680000       0.77070000
H       -0.95720000       1.93050000      -0.38900000
H       -1.06790000       1.16890000       1.20740000
H       -0.50630000      -0.52380000      -0.57390000
H        0.93850000       0.39050000      -0.99610000
H        1.87650000       0.01600000       1.30950000
H        2.11160000      -2.41200000       1.52590000
H       -0.29160000      -2.63240000      -0.40280000
H        1.25820000      -3.47850000      -0.57020000
H       -0.46280000      -3.81870000       1.62510000
