16
Properties=species:S:1:pos:R:3 gdb_54234=T pbc="F F F"
C       -0.25530000       1.64820000       0.38670000
C       -0.05190000       0.17420000       0.07680000
O        0.98880000      -0.07970000      -0.91630000
C        1.80850000      -0.86290000      -0.02020000
C        0.79350000      -0.62240000       1.10160000
O        0.70670000      -0.88760000       2.25730000
C       -1.38640000      -0.51140000      -0.27050000
N       -1.32310000      -1.30230000      -1.37190000
O       -2.36870000      -0.35500000       0.42460000
H        0.66540000       2.10160000       0.76210000
H       -0.56480000       2.18010000      -0.51790000
H       -1.04320000       1.74110000       1.13620000
H        1.91260000      -1.90820000      -0.33570000
H        2.80100000      -0.42600000       0.13810000
H       -0.51200000      -1.24550000      -1.96590000
H       -2.17660000      -1.71170000      -1.71470000
