17
Properties=species:S:1:pos:R:3 gdb_45470=T pbc="F F F"
O        0.02340000      -0.06200000      -0.09690000
C       -0.00380000       1.14870000      -0.01480000
C       -1.31860000       1.91390000       0.08960000
C       -1.21600000       3.24600000       0.80590000
O       -1.02350000       3.10660000       2.23410000
C        0.01220000       4.10390000       2.23120000
C        0.10050000       4.05330000       0.67790000
C        1.26950000       3.26770000       0.18340000
C        1.23200000       1.95750000      -0.09030000
H       -1.66950000       2.08450000      -0.93780000
H       -2.06140000       1.27630000       0.57770000
H       -2.10520000       3.85890000       0.60240000
H       -0.34030000       5.06850000       2.62090000
H        0.89770000       3.78300000       2.78940000
H        0.03080000       5.02270000       0.17840000
H        2.21370000       3.80490000       0.10860000
H        2.12570000       1.41110000      -0.37550000
