18
Properties=species:S:1:pos:R:3 gdb_32095=T pbc="F F F"
C       -0.07260000       1.56230000       0.00470000
C        0.01530000       0.02590000       0.01350000
C        0.73710000      -0.51170000       1.22610000
C        2.09940000      -0.81660000       1.18450000
N        2.79770000      -1.26210000       2.23180000
C        2.15980000      -1.42980000       3.38600000
C        0.79570000      -1.16270000       3.54260000
O        0.24220000      -1.37840000       4.76670000
C        0.08080000      -0.69740000       2.44350000
H        0.92590000       2.01010000       0.01170000
H       -0.60010000       1.91760000      -0.88590000
H       -0.60730000       1.93160000       0.88580000
H       -0.99620000      -0.39510000      -0.02840000
H        0.53150000      -0.31190000      -0.89180000
H        2.65130000      -0.69730000       0.25440000
H        2.73140000      -1.79470000       4.23530000
H       -0.69500000      -1.15860000       4.73600000
H       -0.98300000      -0.48410000       2.53270000
