22
Properties=species:S:1:pos:R:3 gdb_76146=T pbc="F F F"
C       -0.16300000       1.33590000      -0.29400000
N        0.21600000      -0.04510000      -0.00580000
C        1.62450000      -0.47820000      -0.04900000
C        2.78140000       0.43370000      -0.30350000
C        3.96840000      -0.22430000      -0.98860000
O        2.80280000       1.61400000      -0.00740000
C        0.82190000      -0.43150000       1.24980000
C        1.13970000       0.58660000       2.32880000
C        0.33070000      -1.76520000       1.78740000
H        0.56050000       2.09340000       0.01790000
H       -0.31200000       1.42840000      -1.37450000
H       -1.12510000       1.52590000       0.19240000
H        1.74960000      -1.46000000      -0.50340000
H        3.68820000      -0.55270000      -1.99640000
H        4.79430000       0.48460000      -1.05280000
H        4.28470000      -1.11910000      -0.44060000
H        1.63870000       1.47120000       1.93730000
H        0.21450000       0.89210000       2.83130000
H        1.78700000       0.13470000       3.08750000
H        1.09520000      -2.24370000       2.40910000
H       -0.56030000      -1.61660000       2.40840000
H        0.06340000      -2.43830000       0.96990000
