16
Properties=species:S:1:pos:R:3 gdb_16204=T pbc="F F F"
N       -0.13240000       1.21910000      -0.33080000
C       -0.05840000      -0.00930000      -0.04310000
O        1.08060000      -0.70790000       0.20610000
C        0.76200000      -2.07340000       0.56070000
C       -0.65160000      -2.33090000       0.01780000
C       -1.23390000      -0.93020000       0.03360000
C       -2.44240000      -0.48130000       0.78240000
N       -2.45800000      -0.58540000      -0.68030000
H        0.78570000       1.66260000      -0.33100000
H        1.53080000      -2.71290000       0.12330000
H        0.80470000      -2.16580000       1.65210000
H       -0.61450000      -2.70630000      -1.00970000
H       -1.20880000      -3.04720000       0.62420000
H       -3.04450000      -1.22150000       1.30360000
H       -2.40910000       0.50610000       1.23330000
H       -2.32400000       0.34470000      -1.07900000
