19
Properties=species:S:1:pos:R:3 gdb_95857=T pbc="F F F"
C        0.01460000       1.53810000       0.03830000
C        0.02350000       0.02190000      -0.05610000
C        0.79490000      -0.49670000      -1.26850000
O        0.87190000      -1.91420000      -1.25700000
C        1.49070000      -2.38140000      -0.07760000
C        0.73760000      -1.89350000       1.17250000
O        0.63650000      -0.47130000       1.14170000
C       -0.57110000      -2.54210000       1.32470000
C       -1.63540000      -3.08270000       1.46340000
H        1.03580000       1.92850000       0.08910000
H       -0.48390000       1.97480000      -0.83260000
H       -0.51790000       1.85610000       0.93810000
H       -1.00610000      -0.36240000      -0.11110000
H        0.29110000      -0.21940000      -2.19910000
H        1.80830000      -0.06010000      -1.27040000
H        1.49880000      -3.47310000      -0.12690000
H        2.52820000      -2.01400000      -0.01280000
H        1.34650000      -2.11640000       2.05690000
H       -2.57610000      -3.56020000       1.58700000
