16
Properties=species:S:1:pos:R:3 gdb_15917=T pbc="F F F"
C       -0.08860000      -1.21590000      -0.22600000
C       -0.03130000      -0.02480000      -0.06670000
C        0.04700000       1.40840000       0.08620000
C       -0.41810000       2.27450000      -1.12640000
N        0.78580000       3.14510000      -1.00970000
C        1.35430000       2.29090000       0.05940000
C        0.95350000       2.80290000       1.45750000
N       -0.25380000       1.92810000       1.44230000
H       -0.14020000      -2.26930000      -0.34940000
H       -0.47010000       1.69640000      -2.05520000
H       -1.36810000       2.80450000      -0.98690000
H        1.34600000       3.13970000      -1.85320000
H        2.35880000       1.89850000      -0.10070000
H        1.63300000       2.53820000       2.27560000
H        0.76650000       3.88110000       1.47160000
H       -1.14580000       2.40490000       1.52250000
