17
Properties=species:S:1:pos:R:3 gdb_41704=T pbc="F F F"
C       -0.02460000       1.56100000       0.10160000
O        1.34340000       1.98850000      -0.05900000
C        2.00320000       0.84900000      -0.56370000
O        1.46650000       0.52110000      -1.83060000
C        0.34510000      -0.38390000      -1.51270000
C        0.97210000      -1.75340000      -1.34040000
C        1.70080000      -1.68050000      -0.22070000
C        1.50300000      -0.31260000       0.37460000
C        0.04350000       0.03930000      -0.05560000
H       -0.37620000       1.86230000       1.09410000
H       -0.65920000       2.03840000      -0.65580000
H        3.06910000       1.05570000      -0.63920000
H       -0.42690000      -0.25000000      -2.26900000
H        0.94370000      -2.55230000      -2.06910000
H        2.37780000      -2.42630000       0.17570000
H        1.77460000      -0.15870000       1.41760000
H       -0.74410000      -0.53230000       0.43330000
