20
Properties=species:S:1:pos:R:3 gdb_108487=T pbc="F F F"
O       -0.05070000       1.41590000      -0.16430000
C        0.02700000      -0.00020000      -0.02340000
C       -1.39660000      -0.48580000       0.08650000
C       -2.13730000      -0.28600000       1.42860000
C       -2.28170000      -1.83010000       1.47700000
N       -1.64480000      -1.98820000       0.12690000
C       -2.64620000      -1.83560000      -0.98400000
C       -2.27190000      -0.35250000      -1.18850000
O       -3.37320000       0.52220000      -1.16420000
H        0.84170000       1.76290000      -0.25070000
H        0.50810000      -0.46910000      -0.89630000
H        0.60320000      -0.28930000       0.86910000
H       -1.53930000       0.16460000       2.22350000
H       -3.07360000       0.26560000       1.32820000
H       -1.68050000      -2.31610000       2.25160000
H       -3.30080000      -2.22580000       1.53490000
H       -2.44890000      -2.50320000      -1.82680000
H       -3.68650000      -1.96430000      -0.66510000
H       -1.65320000      -0.18430000      -2.08070000
H       -3.02740000       1.42140000      -1.19520000
