11
Properties=species:S:1:pos:R:3 gdb_50794=T pbc="F F F"
N       -0.26480000       1.30700000       0.01240000
C       -0.06280000       0.06980000       0.00300000
O       -1.17910000      -0.75060000       0.00940000
C       -0.98030000      -2.09340000      -0.00020000
O        0.08140000      -2.65450000      -0.01390000
C       -2.25270000      -2.78140000       0.00840000
C       -3.27130000      -3.42940000       0.01480000
C       -4.42960000      -4.15200000       0.02220000
N       -5.41470000      -4.76640000       0.02840000
H        0.62250000       1.80810000       0.00630000
H        0.87340000      -0.48640000      -0.00980000
