23
Properties=species:S:1:pos:R:3 gdb_37796=T pbc="F F F"
C       -0.01970000       1.50640000       0.02800000
C        1.42030000       1.99500000       0.05640000
C        2.29870000       0.81510000       0.42850000
C        1.38280000      -0.36460000       0.73020000
C        0.04980000      -0.04670000       0.00710000
C       -0.01490000      -0.65310000      -1.41140000
C        1.29440000      -0.59330000      -2.20970000
C        1.94650000       0.79200000      -2.28690000
C        2.37480000       1.42250000      -0.96350000
H       -0.52730000       1.84410000       0.93950000
H       -0.59660000       1.90040000      -0.81730000
H        1.61270000       2.99090000       0.44210000
H        3.16480000       0.94850000       1.06880000
H        1.79370000      -1.33800000       0.44230000
H        1.22260000      -0.40060000       1.81500000
H       -0.79560000      -0.45340000       0.57120000
H       -0.31800000      -1.70490000      -1.33280000
H       -0.81300000      -0.14990000      -1.97300000
H        2.01870000      -1.29510000      -1.77940000
H        1.10190000      -0.95070000      -3.22850000
H        2.83680000       0.70720000      -2.92170000
H        1.27470000       1.48560000      -2.81260000
H        3.26390000       2.03820000      -1.08060000
