18
Properties=species:S:1:pos:R:3 gdb_67857=T pbc="F F F"
C       -0.01820000       1.47230000      -0.03470000
C        0.00330000      -0.03780000      -0.02110000
C       -0.48960000      -0.79810000      -1.20570000
C       -1.18500000      -1.86270000      -0.80910000
C       -1.22920000      -1.93420000       0.69720000
N       -0.44990000      -0.76120000       1.17220000
C        0.99790000      -0.76100000       0.89080000
C        1.81990000      -1.91340000       0.45370000
O        1.42740000      -2.99950000       0.09270000
H        0.68170000       1.86410000      -0.78060000
H       -1.02000000       1.83570000      -0.28710000
H        0.25560000       1.87460000       0.94340000
H       -0.29350000      -0.49230000      -2.22550000
H       -1.64000000      -2.60690000      -1.45130000
H       -2.25100000      -1.84040000       1.08720000
H       -0.80870000      -2.86750000       1.07900000
H        1.54770000      -0.10920000       1.56960000
H        2.91110000      -1.69060000       0.49690000
