19
Properties=species:S:1:pos:R:3 gdb_81592=T pbc="F F F"
O       -0.55890000       1.17440000      -0.86050000
C       -0.34500000      -0.12410000      -0.38740000
C        0.00090000      -0.39450000       1.11380000
C       -1.49740000      -0.11200000       1.44190000
C       -1.52550000      -1.00150000       0.16010000
C       -0.44410000      -1.87420000       0.86910000
C        0.41260000      -2.87620000       0.13730000
C       -0.17720000      -3.95300000      -0.67220000
O        0.49520000      -2.85600000      -1.29090000
H       -1.10170000       1.66410000      -0.23510000
H        0.29110000      -0.60550000      -1.12500000
H        0.87530000      -0.05660000       1.67300000
H       -1.89000000      -0.56050000       2.35830000
H       -1.85610000       0.91720000       1.35500000
H       -2.40580000      -1.35200000      -0.38070000
H       -0.80730000      -2.35260000       1.78680000
H        1.36730000      -3.09150000       0.62280000
H        0.32740000      -4.91490000      -0.74970000
H       -1.25590000      -3.97910000      -0.82040000
