13
Properties=species:S:1:pos:R:3 gdb_132122=T pbc="F F F"
N        0.05340000       1.46640000       0.11860000
C        0.00990000       0.05530000       0.04010000
C       -1.11390000      -0.69520000       0.05090000
F       -2.32440000      -0.18280000       0.08940000
O       -1.14150000      -2.01340000       0.07580000
C        0.07310000      -2.74410000      -0.01040000
N       -0.07850000      -3.99480000      -0.08760000
N        1.25600000      -2.02730000       0.01520000
C        1.20970000      -0.73390000       0.04900000
H        0.46490000       1.88480000      -0.70920000
H       -0.87100000       1.86010000       0.24560000
H        0.84310000      -4.42610000      -0.12560000
H        2.16030000      -0.20080000       0.08690000
