23
Properties=species:S:1:pos:R:3 gdb_41692=T pbc="F F F"
C       -0.01330000       1.48300000      -0.28280000
C        1.50520000       1.57160000       0.03680000
C        1.47620000       0.10760000       0.56360000
C        1.57310000      -0.08570000       2.07530000
C        0.38470000       0.58560000       2.82540000
C       -0.43540000      -0.68750000       2.47370000
C        0.92100000      -1.45040000       2.44170000
C       -1.02430000      -0.59680000       1.05840000
C        0.00050000      -0.04250000       0.04180000
H       -0.64100000       2.06500000       0.39800000
H       -0.30280000       1.74270000      -1.30450000
H        2.12950000       1.69890000      -0.85120000
H        1.79920000       2.33050000       0.76760000
H        2.19550000      -0.55960000       0.07680000
H        2.58360000       0.12230000       2.44000000
H        0.58450000       0.64600000       3.89900000
H        0.01960000       1.55730000       2.48310000
H       -1.18810000      -1.02340000       3.19180000
H        1.02950000      -2.27490000       1.72900000
H        1.21800000      -1.79290000       3.43670000
H       -1.35970000      -1.59690000       0.75660000
H       -1.91900000       0.03960000       1.06340000
H       -0.03840000      -0.62680000      -0.88100000
