23
Properties=species:S:1:pos:R:3 gdb_118696=T pbc="F F F"
C       -2.72330000       0.16210000      -2.08370000
O       -2.05440000      -1.05070000      -1.83110000
C       -0.67950000      -1.01640000      -2.18780000
C       -0.07340000      -2.30100000      -1.68610000
O       -0.21420000      -2.42790000      -0.29320000
C       -0.11650000      -3.57900000      -2.50180000
C       -0.74390000      -3.68550000      -3.87510000
C        1.20640000      -2.86630000      -2.23110000
C        2.03800000      -2.19820000      -3.30650000
H       -2.27730000       0.99870000      -1.52330000
H       -2.70760000       0.42030000      -3.15420000
H       -3.76180000       0.03690000      -1.76740000
H       -0.56890000      -0.89360000      -3.27410000
H       -0.18740000      -0.15950000      -1.69900000
H       -1.15210000      -2.28440000      -0.11380000
H       -0.26920000      -4.45740000      -1.88020000
H       -0.56220000      -2.80270000      -4.49370000
H       -0.34550000      -4.54900000      -4.41990000
H       -1.82910000      -3.81100000      -3.79820000
H        1.80200000      -3.33750000      -1.45340000
H        1.43060000      -1.74470000      -4.09380000
H        2.66780000      -1.40910000      -2.88100000
H        2.70130000      -2.92530000      -3.78760000
