19
Properties=species:S:1:pos:R:3 gdb_107851=T pbc="F F F"
O       -0.04150000       1.39170000       0.07380000
C       -0.01320000      -0.02590000      -0.05110000
C       -1.42660000      -0.53060000       0.02040000
C       -2.28700000      -0.44200000       1.31270000
C       -3.06520000      -1.61570000       0.69780000
C       -3.36540000      -1.29700000      -0.82370000
C       -2.45080000      -0.07990000      -1.04620000
O       -2.48550000      -2.38930000      -1.24190000
C       -1.79380000      -2.10100000      -0.02590000
H        0.86200000       1.71630000       0.01630000
H        0.43610000      -0.33300000      -1.01010000
H        0.58800000      -0.48080000       0.75360000
H       -1.73920000      -0.76580000       2.20330000
H       -2.79670000       0.50270000       1.51740000
H       -3.74690000      -2.27340000       1.23370000
H       -4.35770000      -1.33840000      -1.27020000
H       -2.89850000       0.88810000      -0.81120000
H       -2.06370000      -0.07170000      -2.06750000
H       -1.07880000      -2.85120000       0.31110000
