17
Properties=species:S:1:pos:R:3 gdb_88360=T pbc="F F F"
O       -0.10050000       1.44440000       0.65390000
C        0.00690000       0.11420000       0.23530000
C       -0.63630000      -0.97070000       1.06410000
C       -1.25470000      -0.54090000      -0.24760000
C       -2.56640000       0.25230000      -0.24220000
C       -2.78300000       0.91310000      -1.53500000
C       -2.94070000       1.44590000      -2.59940000
C       -3.70560000      -0.60120000       0.11760000
C       -4.62340000      -1.31190000       0.42580000
H        0.44750000       1.55650000       1.43730000
H        0.92710000      -0.12140000      -0.29830000
H       -0.16610000      -1.94580000       1.12470000
H       -1.14210000      -0.65210000       1.97010000
H       -1.16230000      -1.22340000      -1.08530000
H       -2.46240000       1.03560000       0.51990000
H       -3.08730000       1.92430000      -3.53590000
H       -5.44270000      -1.93240000       0.69230000
