18
Properties=species:S:1:pos:R:3 gdb_74577=T pbc="F F F"
C        0.11310000       1.54090000       0.03780000
C        0.02770000       0.05140000      -0.03130000
C       -0.00030000      -0.70770000      -1.13220000
N       -0.05950000      -2.09360000      -0.82230000
C        0.05070000      -2.25310000       0.65770000
C       -1.14700000      -3.24010000       0.61060000
C       -1.21970000      -2.90500000      -0.89610000
O       -1.95490000      -3.15310000      -1.80570000
C       -0.08260000      -0.81830000       1.21940000
H        1.01240000       1.86970000       0.57450000
H        0.13300000       1.98900000      -0.95930000
H       -0.74410000       1.95950000       0.58100000
H        0.01100000      -0.38820000      -2.16530000
H        0.99870000      -2.71340000       0.94730000
H       -0.93450000      -4.28200000       0.85960000
H       -2.04060000      -2.91580000       1.14920000
H        0.70350000      -0.59810000       1.94940000
H       -1.03960000      -0.64030000       1.73140000
