24
Properties=species:S:1:pos:R:3 gdb_118185=T pbc="F F F"
C       -0.07740000       1.45310000      -0.08460000
C       -0.00170000      -0.07350000       0.00360000
C        0.72090000      -0.56270000       1.26310000
C        0.81380000      -2.09090000       1.39070000
C        1.69210000      -2.51380000       2.57590000
N       -0.51620000      -2.68630000       1.49110000
C       -0.91570000      -3.75960000       0.74520000
C       -2.30810000      -4.28550000       1.06530000
O       -0.21680000      -4.26960000      -0.11280000
H        0.92240000       1.90160000      -0.09640000
H       -0.59590000       1.77390000      -0.99340000
H       -0.61620000       1.87440000       0.77180000
H       -1.01320000      -0.49540000      -0.02100000
H        0.51240000      -0.46960000      -0.88130000
H        1.74060000      -0.15720000       1.27980000
H        0.22410000      -0.15600000       2.15750000
H        1.23520000      -2.50860000       0.47160000
H        1.76210000      -3.60340000       2.63320000
H        2.70410000      -2.10950000       2.47310000
H        1.28020000      -2.14650000       3.52360000
H       -1.12320000      -2.35680000       2.22510000
H       -2.84890000      -4.43380000       0.12820000
H       -2.21450000      -5.26350000       1.54720000
H       -2.88930000      -3.62740000       1.71700000
