21
Properties=species:S:1:pos:R:3 gdb_101833=T pbc="F F F"
C       -0.76720000       0.93940000       0.01080000
C        0.15350000      -0.24570000       0.29810000
C        0.93760000      -0.69120000      -0.93780000
O        1.80670000       0.32550000      -1.40060000
O        1.16890000       0.11840000       1.25210000
C        0.79460000       0.05270000       2.61250000
C        0.80710000      -1.35700000       3.15400000
C       -0.04000000      -1.74970000       4.28680000
O       -0.37590000      -2.14160000       2.95600000
H       -0.19970000       1.74310000      -0.46430000
H       -1.57490000       0.63710000      -0.66380000
H       -1.22670000       1.32260000       0.92660000
H       -0.42400000      -1.09650000       0.67970000
H        1.49280000      -1.60970000      -0.69210000
H        0.24820000      -0.92140000      -1.75670000
H        2.31670000       0.60070000      -0.62920000
H        1.53110000       0.65360000       3.15970000
H       -0.19710000       0.49540000       2.78370000
H        1.73490000      -1.90470000       2.98380000
H        0.28160000      -2.55370000       4.94650000
H       -0.70700000      -1.01730000       4.74050000
