23
Properties=species:S:1:pos:R:3 gdb_121923=T pbc="F F F"
C        0.02200000       1.39070000      -0.00080000
O        0.01130000      -0.00850000       0.13040000
C       -1.27590000      -0.56420000      -0.04640000
C       -1.16890000      -2.07700000       0.08300000
C       -2.52430000      -2.77690000      -0.07420000
O       -3.15150000      -2.44680000      -1.30760000
C       -2.39760000      -4.30620000       0.04600000
C       -3.75570000      -4.99760000       0.12200000
O       -1.67320000      -4.70590000      -1.12350000
H        1.05210000       1.72740000       0.14210000
H       -0.32170000       1.71240000      -0.99730000
H       -0.61790000       1.87940000       0.75210000
H       -1.97300000      -0.16090000       0.71070000
H       -1.68500000      -0.29740000      -1.03250000
H       -0.47190000      -2.45800000      -0.67100000
H       -0.74430000      -2.32140000       1.06450000
H       -3.20630000      -2.42570000       0.71070000
H       -2.69660000      -2.98200000      -1.97180000
H       -1.81010000      -4.54340000       0.94680000
H       -4.27290000      -4.73410000       1.05010000
H       -4.38040000      -4.69400000      -0.72190000
H       -3.64170000      -6.08810000       0.10750000
H       -1.76290000      -5.65760000      -1.22730000
