23
Properties=species:S:1:pos:R:3 gdb_85867=T pbc="F F F"
C       -0.84260000       1.02630000      -0.08120000
C        0.13810000      -0.13710000      -0.07580000
C        1.53060000       0.07290000      -0.74310000
C        2.20260000      -0.66950000       0.45560000
C        2.56130000      -2.12220000       0.15520000
O        3.28220000      -0.00330000       1.08690000
C        0.88250000      -0.49520000       1.22370000
C        0.76890000       0.21870000       2.53780000
C        0.40660000      -1.24430000       2.43170000
H       -0.37700000       1.93720000       0.30930000
H       -1.19050000       1.23690000      -1.09860000
H       -1.72690000       0.81200000       0.53030000
H       -0.35180000      -1.02720000      -0.48970000
H        1.68240000      -0.34110000      -1.74400000
H        1.82170000       1.12670000      -0.73560000
H        3.40020000      -2.17630000      -0.55120000
H        2.84960000      -2.64470000       1.07260000
H        1.71830000      -2.65600000      -0.29360000
H        4.09160000      -0.23280000       0.61830000
H        1.69410000       0.48140000       3.03760000
H       -0.03560000       0.93610000       2.66470000
H       -0.64310000      -1.51880000       2.48050000
H        1.07620000      -1.96980000       2.88400000
