17
Properties=species:S:1:pos:R:3 gdb_70718=T pbc="F F F"
O        0.03920000       1.35900000      -0.09390000
C        0.01530000      -0.02500000      -0.03930000
C       -0.51900000      -0.75330000      -1.27030000
C       -1.33100000      -0.73980000      -0.01090000
O       -1.46880000      -1.95670000       0.66680000
C       -0.56000000      -2.17260000       1.73080000
C        0.89850000      -2.03740000       1.24810000
C        1.09920000      -0.60930000       0.79550000
O        2.00190000       0.10890000       1.18420000
H        0.86650000       1.60210000       0.35410000
H       -0.81110000      -0.09260000      -2.07870000
H       -0.07220000      -1.69670000      -1.56290000
H       -2.20550000      -0.09650000       0.04260000
H       -0.74550000      -1.46920000       2.55690000
H       -0.75630000      -3.18430000       2.09480000
H        1.61350000      -2.25800000       2.04430000
H        1.06220000      -2.74060000       0.42350000
