19
Properties=species:S:1:pos:R:3 gdb_58977=T pbc="F F F"
C       -0.25030000       1.44880000       0.10890000
C        0.03940000      -0.05260000      -0.04710000
O        0.90260000      -0.30130000      -1.15270000
C        0.71750000      -0.60470000       1.17600000
C        0.11460000      -1.18610000       2.22330000
C        1.09750000      -1.55670000       3.26280000
O        0.87460000      -2.09200000       4.32450000
C        2.48000000      -1.13250000       2.73680000
C        2.21930000      -0.51390000       1.35160000
H        0.67680000       2.00770000       0.26580000
H       -0.73510000       1.83420000      -0.79560000
H       -0.91980000       1.63140000       0.95410000
H       -0.91780000      -0.57910000      -0.18430000
H        0.52130000       0.12300000      -1.92780000
H       -0.94510000      -1.38370000       2.33150000
H        2.93150000      -0.42840000       3.44190000
H        3.13700000      -2.00620000       2.70090000
H        2.72050000      -1.04750000       0.53850000
H        2.55880000       0.52600000       1.27850000
