17
Properties=species:S:1:pos:R:3 gdb_41303=T pbc="F F F"
C       -0.02020000       1.59530000       0.09420000
C        1.49450000       1.37570000      -0.05720000
O        1.84040000       0.80170000       1.24130000
C        1.16270000      -0.40450000       0.98950000
C        1.00660000      -1.79390000       1.58070000
O        1.11970000      -2.29650000       0.20590000
C        1.82030000      -1.06650000      -0.21380000
C        1.13890000       0.04570000      -0.97630000
C       -0.04510000       0.06830000       0.04050000
H       -0.34770000       2.12330000       0.99310000
H       -0.47410000       2.02790000      -0.80170000
H        2.21380000       2.14150000      -0.34020000
H        1.84540000      -2.13490000       2.20070000
H        0.05170000      -2.06440000       2.04070000
H        2.89730000      -1.23560000      -0.28560000
H        1.05780000       0.20210000      -2.05270000
H       -0.93290000      -0.55320000      -0.02820000
