14
Properties=species:S:1:pos:R:3 gdb_15607=T pbc="F F F"
C        0.01650000       1.43200000       0.04220000
N       -0.00630000      -0.01550000       0.11690000
C       -1.10510000      -0.63400000       0.02760000
N       -2.40940000      -0.14090000      -0.14110000
C       -3.30590000      -1.19930000      -0.09920000
C       -2.70070000      -2.40350000      -0.00610000
C       -1.25630000      -2.17100000       0.07670000
O       -0.34050000      -2.95570000       0.15920000
H        0.95230000       1.74790000      -0.42740000
H       -0.81600000       1.87700000      -0.52360000
H        0.01030000       1.85440000       1.05580000
H       -2.67900000       0.80740000       0.05310000
H       -4.36510000      -0.98470000      -0.16020000
H       -3.17960000      -3.36910000      -0.00010000
