20
Properties=species:S:1:pos:R:3 gdb_99740=T pbc="F F F"
C        0.08780000       1.60730000      -0.08620000
C        0.05060000       0.08130000      -0.11400000
O        0.83660000      -0.35610000       0.97360000
C       -1.38230000      -0.51070000      -0.01350000
C       -2.34970000       0.05200000      -1.07420000
N       -3.72310000      -0.45220000      -0.85650000
H       -4.14790000       0.00730000      -0.05610000
H       -4.31190000      -0.26060000      -1.66020000
H       -3.16430000      -2.01800000      -0.50990000
C       -1.32290000      -2.05660000      -0.03020000
O       -2.45490000      -2.69360000      -0.30650000
O       -0.30690000      -2.67350000       0.21150000
H        1.12910000       1.92330000       0.01390000
H       -0.31640000       2.05360000      -0.99840000
H       -0.46480000       1.99680000       0.77590000
H        0.48590000      -0.26580000      -1.06770000
H        0.80250000      -1.32580000       0.93440000
H       -1.76300000      -0.23280000       0.98170000
H       -2.31050000       1.14610000      -1.06340000
H       -2.03520000      -0.27430000      -2.07200000
