17
Properties=species:S:1:pos:R:3 gdb_8527=T pbc="F F F"
C       -0.16840000       1.64150000       0.00230000
C       -0.02600000       0.13560000      -0.02130000
O       -1.26560000      -0.42110000      -0.37540000
C        1.21480000      -0.50780000      -0.67700000
C        2.14690000      -0.25120000       0.54350000
C        2.48440000      -1.73930000       0.57280000
N        1.01370000      -1.79730000       0.17740000
C        0.73620000      -0.58110000       1.11390000
H        0.77090000       2.12990000       0.27320000
H       -0.48030000       2.00360000      -0.98190000
H       -0.93620000       1.93380000       0.72480000
H       -1.14010000      -1.37980000      -0.38110000
H        1.49600000      -0.59000000      -1.72960000
H        2.77250000       0.62280000       0.74650000
H        3.15760000      -2.13440000      -0.19520000
H        2.69360000      -2.20550000       1.54130000
H        0.45740000      -0.74920000       2.15690000
