25
Properties=species:S:1:pos:R:3 gdb_104452=T pbc="F F F"
C        0.14850000       1.56690000       0.07740000
C       -0.00180000       0.04560000      -0.03160000
C       -1.45260000      -0.48200000      -0.00430000
O       -2.10350000      -0.06320000       1.20560000
C       -2.26320000      -0.01380000      -1.23220000
C       -3.67500000      -0.61610000      -1.26860000
C       -3.62880000      -2.14850000      -1.21950000
C       -2.84860000      -2.63050000       0.01020000
C       -1.44130000      -2.01980000       0.05670000
H        1.20610000       1.84680000       0.09660000
H       -0.31170000       2.09360000      -0.76470000
H       -0.29900000       1.94570000       1.00290000
H        0.48160000      -0.30510000      -0.95210000
H        0.53460000      -0.42290000       0.80220000
H       -2.25280000       0.88590000       1.14820000
H       -2.32230000       1.08210000      -1.24100000
H       -1.71630000      -0.29760000      -2.14150000
H       -4.24240000      -0.24550000      -0.40660000
H       -4.20120000      -0.27430000      -2.16710000
H       -4.64470000      -2.55960000      -1.21240000
H       -3.14530000      -2.52700000      -2.13190000
H       -3.38860000      -2.34270000       0.91900000
H       -2.77670000      -3.72410000       0.01410000
H       -0.84600000      -2.39230000      -0.78700000
H       -0.92380000      -2.32560000       0.97280000
