18
Properties=species:S:1:pos:R:3 gdb_22964=T pbc="F F F"
C       -0.12230000       1.34860000       0.01060000
O        0.03480000      -0.05040000      -0.01560000
C        0.55240000      -0.56590000       1.18600000
C        0.74140000      -2.06190000       1.02520000
O        1.91710000      -2.43540000       0.25320000
C        2.48650000      -3.19330000       1.34710000
C        1.31130000      -2.80780000       2.20800000
N        0.90720000      -2.95130000       3.39510000
O        1.81090000      -3.72180000       4.14420000
H        0.83800000       1.86410000       0.16810000
H       -0.52980000       1.64870000      -0.95750000
H       -0.81690000       1.66690000       0.80440000
H        1.51770000      -0.09810000       1.43950000
H       -0.13900000      -0.38900000       2.02850000
H       -0.16830000      -2.49720000       0.59090000
H        2.57640000      -4.26350000       1.12120000
H        3.46290000      -2.81130000       1.67050000
H        1.38640000      -3.75500000       5.00850000
