12
Properties=species:S:1:pos:R:3 gdb_70=T pbc="F F F"
C       -0.09780000       1.44920000       0.04560000
N        0.01040000       0.00370000      -0.00070000
C        0.05320000      -0.71430000       1.25260000
C        0.06730000      -0.64070000      -1.20060000
O        0.03640000      -0.11010000      -2.29110000
H        0.75650000       1.88750000       0.57650000
H       -0.11650000       1.81630000      -0.98050000
H       -1.01640000       1.75520000       0.56150000
H       -0.85450000      -0.53660000       1.84390000
H        0.13300000      -1.78700000       1.05850000
H        0.91640000      -0.40740000       1.85760000
H        0.14760000      -1.73800000      -1.06810000
