14
Properties=species:S:1:pos:R:3 gdb_123515=T pbc="F F F"
C       -0.02860000       1.29520000       0.00960000
N        1.18280000       1.82810000       0.00110000
C        2.06650000       0.79470000      -0.01320000
C        1.39560000      -0.41840000      -0.01370000
C        1.68790000      -1.79690000      -0.02440000
C        0.64760000      -2.68290000      -0.01960000
C       -0.68850000      -2.17950000      -0.00390000
N       -1.01860000      -0.91620000       0.00640000
N        0.03030000      -0.06100000       0.00130000
H       -0.97020000       1.82020000       0.02160000
H        3.13380000       0.95690000      -0.02240000
H        2.72210000      -2.12180000      -0.03610000
H        0.81100000      -3.75290000      -0.02720000
H       -1.53100000      -2.86400000       0.00020000
