17
Properties=species:S:1:pos:R:3 gdb_51082=T pbc="F F F"
O       -0.59020000       0.59870000       0.61190000
C        0.15600000       0.90470000      -0.28240000
C        1.33740000       1.84570000      -0.12320000
C        1.32430000       2.94610000      -1.15900000
C        2.51390000       3.91860000      -1.44920000
C        1.73930000       3.90490000      -2.80090000
O        1.45600000       2.48810000      -2.55360000
C        0.40590000       4.56600000      -2.40020000
C        0.11880000       3.91160000      -1.27480000
H        0.02470000       0.50510000      -1.31040000
H        1.32470000       2.26130000       0.88850000
H        2.25640000       1.25830000      -0.24900000
H        2.57870000       4.85220000      -0.88730000
H        3.47400000       3.39920000      -1.50580000
H        2.19310000       4.11530000      -3.76770000
H       -0.11670000       5.35730000      -2.91660000
H       -0.71090000       3.99580000      -0.58820000
