19
Properties=species:S:1:pos:R:3 gdb_2174=T pbc="F F F"
C       -0.19360000       1.53910000       0.03620000
C        0.06560000       0.03460000       0.06270000
C        0.83420000      -0.51500000      -1.15980000
C        1.46560000      -1.85590000      -0.69200000
C        1.25470000      -1.90350000       0.84650000
C        0.91040000      -0.46150000       1.24730000
O        2.07520000       0.36000000       1.31230000
H        0.74980000       2.09070000       0.03180000
H       -0.76260000       1.82150000      -0.85590000
H       -0.76740000       1.86080000       0.91210000
H       -0.89700000      -0.49110000       0.13280000
H        0.18360000      -0.63620000      -2.03060000
H        1.61830000       0.19530000      -1.43890000
H        0.99750000      -2.71770000      -1.17580000
H        2.52780000      -1.89370000      -0.94610000
H        0.41380000      -2.55780000       1.10370000
H        2.12710000      -2.28280000       1.38990000
H        0.35780000      -0.41240000       2.19790000
H        2.66550000      -0.01600000       1.97190000
