19
Properties=species:S:1:pos:R:3 gdb_81293=T pbc="F F F"
C       -0.17330000       1.61890000      -0.01530000
C        0.04400000       0.11300000      -0.01920000
C        0.83100000      -0.62420000      -1.13800000
C        2.09430000       0.13050000      -1.51770000
O        2.81870000       0.58440000      -0.35670000
C        2.37900000       0.21240000       0.88140000
N        2.97810000       0.54240000       1.94470000
C        1.10230000      -0.58430000       0.88780000
N        1.27630000      -1.66980000      -0.15100000
H        0.76230000       2.17200000      -0.13250000
H       -0.84680000       1.91520000      -0.82710000
H       -0.63150000       1.93880000       0.92620000
H       -0.91050000      -0.40580000       0.12410000
H        0.31040000      -0.98040000      -2.03120000
H        2.76100000      -0.52620000      -2.08610000
H        1.86710000       1.01640000      -2.12100000
H        3.81250000       1.09110000       1.72390000
H        0.85610000      -0.89510000       1.90160000
H        0.50860000      -2.32820000      -0.02470000
