19
Properties=species:S:1:pos:R:3 gdb_99199=T pbc="F F F"
C        0.03150000       1.42580000       0.22460000
C        0.14910000      -0.08100000       0.00910000
C        0.82560000      -0.43510000      -1.29970000
O        1.24190000       0.35150000      -2.11360000
O        0.90770000      -1.77450000      -1.44770000
C        1.54080000      -2.21230000      -2.67180000
C        1.56150000      -3.66340000      -2.69990000
C        1.59480000      -4.86480000      -2.75430000
C        1.63180000      -6.31810000      -2.81400000
H        1.01670000       1.89850000       0.23100000
H       -0.54850000       1.89170000      -0.57600000
H       -0.46090000       1.63780000       1.17760000
H        0.71600000      -0.56070000       0.81570000
H       -0.83340000      -0.56750000       0.01670000
H        0.98880000      -1.80020000      -3.52370000
H        2.55210000      -1.79350000      -2.71750000
H        2.66060000      -6.68890000      -2.87590000
H        1.17420000      -6.75690000      -1.92070000
H        1.08640000      -6.69570000      -3.68560000
