23
Properties=species:S:1:pos:R:3 gdb_122323=T pbc="F F F"
C        0.06070000       1.56030000       0.19090000
C        0.00270000       0.04550000      -0.02330000
C       -1.41790000      -0.52080000       0.06900000
C       -1.47080000      -2.04620000      -0.14580000
C       -2.85370000      -2.61980000      -0.08880000
C       -3.55150000      -3.21010000      -1.05640000
C       -4.89470000      -3.64370000      -0.54710000
O       -4.91990000      -3.24690000       0.82240000
C       -3.69300000      -2.61490000       1.16760000
H        1.08620000       1.93530000       0.11560000
H       -0.54270000       2.08910000      -0.55530000
H       -0.32260000       1.83580000       1.17960000
H        0.42740000      -0.20310000      -1.00500000
H        0.64050000      -0.45520000       0.71730000
H       -1.84410000      -0.27020000       1.04910000
H       -2.05900000      -0.03240000      -0.67620000
H       -1.01830000      -2.29050000      -1.11400000
H       -0.84480000      -2.52810000       0.61960000
H       -3.22190000      -3.37800000      -2.07470000
H       -5.72890000      -3.16760000      -1.08780000
H       -5.04440000      -4.73310000      -0.62370000
H       -3.20260000      -3.16380000       1.98940000
H       -3.89260000      -1.59700000       1.53910000
