19
Properties=species:S:1:pos:R:3 gdb_106822=T pbc="F F F"
O        0.71670000      -0.20190000      -0.59070000
C       -0.21930000       0.29800000       0.36700000
C       -1.56470000      -0.37720000       0.23930000
C       -2.19290000      -0.72630000      -1.10520000
C       -1.74800000      -1.81640000      -0.13640000
O       -0.71580000      -2.69370000      -0.45150000
C       -2.79150000      -2.35280000       0.82510000
C       -3.41070000      -1.07030000       1.41870000
O       -2.43090000      -0.02970000       1.28910000
H        0.53840000       0.22430000      -1.43460000
H        0.19740000       0.07130000       1.35350000
H       -0.31810000       1.38920000       0.29200000
H       -3.24580000      -0.52210000      -1.27290000
H       -1.57000000      -0.61120000      -1.98740000
H        0.06320000      -2.15050000      -0.64020000
H       -3.54490000      -2.99150000       0.35540000
H       -2.27040000      -2.94130000       1.58660000
H       -4.32230000      -0.78610000       0.87600000
H       -3.66460000      -1.15990000       2.47800000
