11
Properties=species:S:1:pos:R:3 gdb_132239=T pbc="F F F"
F        0.04700000       0.10780000       0.07370000
C       -0.09360000       1.40000000       0.00600000
N       -1.22130000       1.94410000       0.16440000
C       -1.26830000       3.33910000       0.07350000
N       -2.29920000       4.06200000       0.20210000
N       -0.03780000       3.97010000      -0.18640000
C        1.16640000       3.36240000      -0.35330000
O        2.21740000       3.87520000      -0.57380000
O        1.09740000       1.95890000      -0.24160000
H       -3.10810000       3.47080000       0.38550000
H       -0.04880000       4.97800000      -0.25630000
