19
Properties=species:S:1:pos:R:3 gdb_88192=T pbc="F F F"
O       -0.04990000       1.37590000      -0.02700000
C        0.02760000      -0.01120000       0.02420000
C       -0.35130000      -0.75940000       1.27980000
C       -1.26070000      -0.80030000       0.04780000
O       -2.37330000       0.05690000       0.08240000
C       -3.60670000      -0.63300000       0.26610000
C       -3.87740000      -1.57870000      -0.90590000
C       -2.64820000      -2.40130000      -1.19210000
C       -1.45190000      -2.04160000      -0.72500000
H       -0.99100000       1.59580000      -0.04550000
H        0.84790000      -0.39940000      -0.57370000
H        0.19940000      -1.65350000       1.55280000
H       -0.71330000      -0.15850000       2.10710000
H       -3.57770000      -1.19890000       1.20880000
H       -4.37480000       0.13970000       0.35100000
H       -4.72850000      -2.22700000      -0.66170000
H       -4.17280000      -1.00390000      -1.79430000
H       -2.75920000      -3.30590000      -1.78240000
H       -0.56930000      -2.65180000      -0.89440000
