18
Properties=species:S:1:pos:R:3 gdb_111082=T pbc="F F F"
C        0.16080000       1.33240000       0.13300000
O       -0.28170000       0.04360000      -0.24560000
C        0.48430000      -0.52890000      -1.26210000
C        1.79890000      -1.27570000      -0.83460000
C        0.87400000      -2.40470000      -0.29410000
C        0.03650000      -1.99500000      -1.56220000
C        1.04890000      -2.37510000      -2.65540000
O        0.92130000      -3.04130000      -3.65070000
N        2.20450000      -1.76570000      -2.16550000
H        1.17140000       1.31160000       0.56580000
H        0.16440000       2.02270000      -0.72340000
H       -0.53830000       1.70300000       0.88550000
H        0.59520000       0.15130000      -2.11820000
H        2.60350000      -0.81240000      -0.26610000
H        1.28420000      -3.41680000      -0.26060000
H        0.36880000      -2.14680000       0.63580000
H       -1.00030000      -2.27390000      -1.72850000
H        3.11120000      -2.17250000      -2.34080000
