17
Properties=species:S:1:pos:R:3 gdb_98037=T pbc="F F F"
C       -0.08870000       1.51710000       0.15490000
C        0.03350000       0.00800000      -0.03710000
C        0.75600000      -0.37850000      -1.31840000
O        1.19020000       0.43570000      -2.10500000
C        0.89500000      -1.80730000      -1.54390000
C        1.00440000      -2.99530000      -1.72040000
C        1.13720000      -4.43540000      -1.93690000
C        1.84440000      -4.78860000      -3.16820000
C        2.42290000      -5.09150000      -4.17490000
H        0.89700000       1.98770000       0.18900000
H       -0.63770000       1.97300000      -0.67280000
H       -0.61420000       1.74340000       1.08670000
H        0.56840000      -0.46430000       0.79820000
H       -0.95090000      -0.47910000      -0.05380000
H        1.65310000      -4.87960000      -1.07410000
H        0.13600000      -4.88860000      -1.94300000
H        2.93680000      -5.35100000      -5.06740000
