13
Properties=species:S:1:pos:R:3 gdb_4394=T pbc="F F F"
C       -0.01650000       1.47210000       0.07340000
C       -0.00530000      -0.01410000      -0.07210000
N       -0.10330000      -0.59610000      -1.21780000
C       -0.07880000      -1.97380000      -1.20180000
C        0.03960000      -2.71650000      -0.07730000
C        0.14940000      -2.06360000       1.20550000
O        0.26080000      -2.53970000       2.29770000
O        0.11660000      -0.64530000       1.10890000
H        0.90740000       1.81000000       0.55350000
H       -0.11650000       1.93460000      -0.90730000
H       -0.84570000       1.78050000       0.71810000
H       -0.16240000      -2.44620000      -2.17630000
H        0.05690000      -3.79800000      -0.08670000
