15
Properties=species:S:1:pos:R:3 gdb_29434=T pbc="F F F"
O        0.61550000       1.16500000       0.24090000
C        0.20650000      -0.11690000       0.01680000
C       -0.29820000      -0.56290000      -1.17950000
N       -0.58880000      -1.91010000      -1.01580000
C       -0.28270000      -2.28690000       0.25180000
O       -0.53960000      -3.57330000       0.62190000
C        0.42400000      -4.22560000       1.33280000
N        0.15540000      -5.34300000       1.84440000
C        0.21820000      -1.20540000       0.94240000
H        0.85960000       1.25170000       1.16630000
H       -0.47680000      -0.04950000      -2.10760000
H       -0.97340000      -2.52580000      -1.71040000
H        1.36750000      -3.66960000       1.36780000
H        0.97650000      -5.71510000       2.31710000
H        0.51750000      -1.18670000       1.97860000
