19
Properties=species:S:1:pos:R:3 gdb_30019=T pbc="F F F"
C       -0.01920000       1.46130000       0.01760000
N       -0.02820000       0.01460000       0.04140000
C       -0.04970000      -0.82410000      -1.05040000
N       -0.05990000      -2.10130000      -0.72490000
C       -0.05270000      -2.08840000       0.64640000
C       -0.03680000      -0.81710000       1.13610000
C        0.04280000      -0.72290000       2.62280000
C       -0.23540000      -2.22150000       3.00970000
C        0.00620000      -3.11090000       1.74140000
H        0.87230000       1.85770000       0.51430000
H       -0.01630000       1.79980000      -1.02050000
H       -0.90560000       1.86960000       0.51380000
H       -0.06640000      -0.42630000      -2.05550000
H        1.03300000      -0.39350000       2.96820000
H       -0.68880000      -0.04860000       3.08300000
H        0.37410000      -2.53740000       3.85990000
H       -1.28190000      -2.31280000       3.31430000
H       -0.74620000      -3.90140000       1.65440000
H        0.98350000      -3.60980000       1.77840000
