18
Properties=species:S:1:pos:R:3 gdb_85189=T pbc="F F F"
O        0.00630000       1.43930000      -0.02850000
C        0.09380000       0.04550000       0.10060000
C        0.21400000      -0.37610000       1.59510000
C       -1.30540000      -0.59400000       1.58590000
O       -2.16390000      -0.63540000       2.41700000
C       -1.33670000      -0.60080000       0.03590000
N       -2.32670000       0.20810000      -0.63240000
C       -3.09980000      -0.37360000      -1.73090000
C       -3.73830000      -0.11680000      -0.41310000
H       -0.86130000       1.60830000      -0.43420000
H        0.84300000      -0.37380000      -0.58010000
H        0.75720000      -1.31480000       1.74920000
H        0.59550000       0.38670000       2.27560000
H       -1.29480000      -1.64280000      -0.31800000
H       -3.28650000       0.28830000      -2.57110000
H       -2.89020000      -1.40680000      -2.00040000
H       -3.96100000      -0.96880000       0.22180000
H       -4.39500000       0.73690000      -0.27730000
