21
Properties=species:S:1:pos:R:3 gdb_98536=T pbc="F F F"
C        0.01260000       1.53580000       0.13470000
C       -0.18400000       0.05000000       0.42310000
C       -1.42040000      -0.53600000      -0.24740000
O       -2.19960000       0.16070000      -0.86970000
C       -1.64080000      -1.99540000      -0.09880000
C       -2.48890000      -2.72990000      -1.11900000
C       -2.99380000      -2.66900000       0.27560000
C       -2.25480000      -3.66990000       1.16960000
C       -0.89130000      -3.00640000       0.78360000
H        0.90280000       1.91550000       0.64430000
H        0.12510000       1.71280000      -0.93810000
H       -0.85320000       2.11350000       0.46700000
H        0.68760000      -0.53970000       0.10640000
H       -0.26930000      -0.13240000       1.50360000
H       -2.97780000      -2.06860000      -1.82510000
H       -2.11500000      -3.66580000      -1.52880000
H       -3.91000000      -2.14740000       0.52380000
H       -2.48550000      -3.55270000       2.23020000
H       -2.38150000      -4.72320000       0.89970000
H       -0.16530000      -3.64100000       0.26480000
H       -0.39790000      -2.55270000       1.64530000
