18
Properties=species:S:1:pos:R:3 gdb_37568=T pbc="F F F"
C       -0.07720000       1.63060000      -0.05300000
C        1.40040000       1.23370000      -0.02810000
N        1.13310000       0.12650000       1.02640000
C       -0.05960000       0.10240000       0.00720000
C        1.19810000      -0.04110000      -0.91820000
C        1.86710000      -0.33870000      -2.23300000
O        3.19890000      -0.70770000      -1.79990000
C        3.30990000      -0.82800000      -0.35210000
C        1.86710000      -0.89460000       0.12490000
H       -0.44810000       2.13770000       0.84110000
H       -0.45960000       2.08570000      -0.96940000
H        2.28210000       1.87070000       0.04630000
H       -0.87110000      -0.61550000       0.13410000
H        1.40690000      -1.18040000      -2.76800000
H        1.94560000       0.51470000      -2.91490000
H        3.89170000      -1.73050000      -0.14650000
H        3.85370000       0.03650000       0.04940000
H        1.49640000      -1.91230000       0.27980000
