18
Properties=species:S:1:pos:R:3 gdb_51758=T pbc="F F F"
O       -0.33740000       0.17630000       0.39410000
C       -0.06800000       1.28690000       0.01960000
C        1.34620000       1.82450000      -0.13560000
N        1.43830000       2.73320000      -1.25320000
C        1.57830000       2.20450000      -2.62720000
C        2.49660000       3.40290000      -2.95690000
C        2.66830000       3.54850000      -1.41510000
C        2.65450000       4.86390000      -0.79980000
C        2.65190000       5.95240000      -0.28940000
H       -0.85280000       2.03320000      -0.23780000
H        1.56260000       2.39440000       0.78070000
H        2.05120000       0.97530000      -0.17510000
H        2.11800000       1.24430000      -2.66510000
H        0.63960000       2.10490000      -3.17990000
H        3.40130000       3.20750000      -3.53110000
H        1.95500000       4.24710000      -3.38380000
H        3.56830000       3.00110000      -1.08620000
H        2.64400000       6.91580000       0.15770000
