23
Properties=species:S:1:pos:R:3 gdb_118883=T pbc="F F F"
C       -0.04930000       1.39810000      -0.01940000
O       -0.08460000      -0.00590000      -0.07820000
C        0.76240000      -0.54030000      -1.07700000
C        0.64430000      -2.05950000      -1.05650000
C        1.11930000      -2.61870000       0.28530000
C       -0.74450000      -2.66240000      -1.48210000
C       -0.04500000      -3.45540000      -2.59350000
C        0.62160000      -2.51550000      -3.55420000
C        1.29530000      -2.80570000      -2.23970000
H        0.95960000       1.77320000       0.21650000
H       -0.36820000       1.85670000      -0.96950000
H       -0.73580000       1.71250000       0.77090000
H        0.47980000      -0.13620000      -2.06220000
H        1.81020000      -0.24040000      -0.89360000
H        0.53270000      -2.19690000       1.10540000
H        1.02450000      -3.70900000       0.30900000
H        2.17370000      -2.37080000       0.45910000
H       -1.18050000      -3.28300000      -0.69660000
H       -1.50070000      -1.94470000      -1.81610000
H       -0.24760000      -4.48720000      -2.85320000
H        1.09180000      -2.98190000      -4.41450000
H        0.18240000      -1.54420000      -3.76850000
H        2.28020000      -3.25830000      -2.19870000
