15
Properties=species:S:1:pos:R:3 gdb_46310=T pbc="F F F"
O       -0.19720000       0.12120000       0.38000000
C       -0.08090000       1.25350000       0.04140000
O       -1.02510000       2.07950000      -0.50470000
C       -0.09740000       3.21370000      -0.54140000
C        1.02300000       2.33450000       0.06210000
C        1.63030000       2.67170000       1.44990000
N        3.03670000       2.89890000       1.09840000
C        3.20460000       2.39600000      -0.17320000
N        2.15350000       2.08520000      -0.83490000
H        0.08310000       3.53810000      -1.56660000
H       -0.46560000       4.03210000       0.08170000
H        1.18120000       3.55530000       1.91190000
H        1.51730000       1.82080000       2.13290000
H        3.75180000       2.74220000       1.79270000
H        4.20590000       2.32520000      -0.58780000
