19
Properties=species:S:1:pos:R:3 gdb_61066=T pbc="F F F"
O       -0.14890000       1.38280000       0.13510000
C        0.01330000      -0.00910000       0.11690000
C        0.50810000      -0.45320000      -1.24220000
O        0.76720000       0.34330000      -2.11410000
C        0.98070000      -0.47250000       1.24810000
C        0.44910000      -0.05530000       2.64770000
C       -0.18850000      -1.33190000       3.25360000
C        0.42790000      -2.44110000       2.43550000
C        1.07430000      -1.98010000       1.36540000
H        0.15460000       1.69250000      -0.73320000
H       -0.95670000      -0.51130000       0.28380000
H        0.62570000      -1.54300000      -1.40000000
H        1.94940000      -0.00410000       1.03760000
H        1.29490000       0.25760000       3.26670000
H       -0.23710000       0.79080000       2.58580000
H        0.02150000      -1.43220000       4.32430000
H       -1.28330000      -1.33970000       3.15840000
H        0.33060000      -3.48860000       2.70020000
H        1.58700000      -2.59940000       0.63730000
