19
Properties=species:S:1:pos:R:3 gdb_36421=T pbc="F F F"
N       -0.29920000      -0.94020000       0.49740000
C       -0.14720000       0.20160000       0.40310000
C        0.06990000       1.64200000       0.27800000
C        1.52150000       1.99190000      -0.13180000
C        1.75040000       3.52260000      -0.26860000
C        2.64230000       3.90590000       0.90300000
C        2.21020000       3.52870000       2.27290000
N        3.19240000       2.70440000       1.55580000
C        2.61790000       1.53030000       0.87780000
H       -0.62860000       2.02890000      -0.47310000
H       -0.20380000       2.11380000       1.22750000
H        1.69350000       1.50440000      -1.09480000
H        2.26490000       3.74720000      -1.20770000
H        0.80930000       4.08320000      -0.28070000
H        3.32640000       4.73900000       0.76770000
H        2.60770000       4.05820000       3.13420000
H        1.20290000       3.14630000       2.41660000
H        2.23780000       0.81330000       1.61270000
H        3.43240000       1.03680000       0.33920000
