17
Properties=species:S:1:pos:R:3 gdb_23287=T pbc="F F F"
O       -0.18370000       1.31390000       0.04490000
N        0.00150000      -0.08230000      -0.00880000
C       -1.11400000      -0.68620000      -0.01450000
C       -2.55080000      -0.17760000       0.02790000
C       -3.22500000      -1.56840000      -0.00010000
N       -2.40980000      -2.41210000       0.94270000
C       -1.30140000      -2.17770000      -0.05640000
C       -2.44610000      -2.31230000      -1.13000000
O       -2.86010000      -3.61450000      -1.39990000
H        0.72330000       1.63820000       0.05320000
H       -2.76860000       0.38540000       0.94120000
H       -2.79110000       0.46490000      -0.82540000
H       -4.31040000      -1.62570000       0.08420000
H       -2.24090000      -1.97850000       1.85090000
H       -0.42840000      -2.82670000      -0.03610000
H       -2.30850000      -1.79730000      -2.08220000
H       -2.96920000      -4.03980000      -0.53780000
