17
Properties=species:S:1:pos:R:3 gdb_12205=T pbc="F F F"
C        0.45170000       1.44010000      -0.29350000
C        0.03320000       0.03570000       0.09270000
O        0.62770000      -0.96870000      -0.78130000
C        1.31380000      -1.60370000       0.30690000
C        2.77410000      -1.53250000       0.16900000
N        3.92480000      -1.47190000       0.07840000
C        0.66390000      -0.63940000       1.34670000
C        1.55680000       0.15790000       2.28350000
H        1.53870000       1.55410000      -0.29000000
H        0.09070000       1.66420000      -1.30190000
H        0.01730000       2.17420000       0.39350000
H       -1.05980000      -0.05020000       0.06270000
H        1.03030000      -2.65790000       0.41020000
H       -0.09210000      -1.17580000       1.92470000
H        2.36560000       0.66560000       1.75280000
H        0.97150000       0.91160000       2.81980000
H        2.01450000      -0.49930000       3.02950000
