20
Properties=species:S:1:pos:R:3 gdb_103314=T pbc="F F F"
C        0.07910000       1.52520000      -0.21590000
C       -0.03560000       0.04370000       0.16640000
C       -1.46500000      -0.51000000       0.12380000
C       -2.37590000       0.12230000       1.17180000
C       -2.08170000      -0.74240000      -1.30510000
N       -1.06690000      -1.87170000      -1.47650000
C       -1.57690000      -2.06940000      -0.04980000
C       -2.97210000      -1.83530000      -0.67080000
O       -4.04290000      -2.34800000      -0.78280000
H        1.12500000       1.84580000      -0.18630000
H       -0.28990000       1.70240000      -1.23190000
H       -0.48120000       2.17700000       0.46140000
H        0.59470000      -0.54840000      -0.49940000
H        0.35070000      -0.09900000       1.18430000
H       -2.48100000       1.19860000       1.00760000
H       -3.38070000      -0.31090000       1.16390000
H       -1.95910000      -0.01810000       2.17520000
H       -2.28050000      -0.02260000      -2.09770000
H       -1.42950000      -2.59900000      -2.09880000
H       -1.19410000      -2.86040000       0.59410000
