15
Properties=species:S:1:pos:R:3 gdb_3677=T pbc="F F F"
C        0.01900000       1.55350000      -0.01480000
C        0.00480000       0.05620000      -0.01690000
C       -0.03320000      -0.79310000      -1.10250000
N       -0.03160000      -2.05620000      -0.61040000
N        0.00530000      -2.09460000       0.73580000
C        0.02770000      -0.81580000       1.10720000
C        0.07120000      -0.44140000       2.55480000
H        0.91700000       1.95140000       0.47290000
H       -0.00530000       1.95180000      -1.03310000
H       -0.84300000       1.96810000       0.52150000
H       -0.06070000      -0.59470000      -2.16310000
H       -0.05370000      -2.92040000      -1.12280000
H        0.96480000       0.14790000       2.79180000
H       -0.79660000       0.16460000       2.84050000
H        0.07970000      -1.34180000       3.17240000
