18
Properties=species:S:1:pos:R:3 gdb_55156=T pbc="F F F"
C       -0.01870000       1.49510000       0.14500000
C        0.03120000      -0.02280000       0.07340000
O        1.07500000      -0.64790000       0.16320000
N       -1.16500000      -0.66270000      -0.09870000
C       -2.48150000      -0.03870000      -0.22720000
C       -3.34110000      -1.14080000      -0.80990000
O       -2.82310000      -1.67070000      -2.03160000
C       -2.56960000      -2.38770000      -0.81700000
C       -1.19960000      -2.12130000      -0.23890000
H        0.98560000       1.85410000       0.36690000
H       -0.34780000       1.92360000      -0.80790000
H       -0.70940000       1.84430000       0.91910000
H       -2.89320000       0.27940000       0.74260000
H       -2.44710000       0.83680000      -0.88370000
H       -4.42270000      -1.09290000      -0.72320000
H       -3.01890000      -3.37320000      -0.74020000
H       -0.38120000      -2.45140000      -0.88390000
H       -1.08540000      -2.62830000       0.72910000
