20
Properties=species:S:1:pos:R:3 gdb_22045=T pbc="F F F"
C        0.13350000       1.50100000       0.02910000
C        0.06940000      -0.00290000       0.04850000
N        0.03250000      -0.69430000       1.12050000
O        0.04390000       0.11900000       2.26510000
C        0.01440000      -0.77930000      -1.27300000
C        0.07930000      -2.30610000      -1.05450000
C       -1.30890000      -0.42110000      -2.00270000
C        1.15190000      -0.36420000      -2.10660000
C        2.07880000      -0.03680000      -2.79910000
H        0.91540000       1.84720000       0.71040000
H        0.33860000       1.88000000      -0.97240000
H       -0.80780000       1.92890000       0.39100000
H        0.04520000      -0.53280000       2.97390000
H       -0.76450000      -2.63770000      -0.44610000
H        0.04530000      -2.81310000      -2.02250000
H        0.99940000      -2.58950000      -0.54120000
H       -1.39210000       0.65350000      -2.18100000
H       -1.35090000      -0.92910000      -2.96980000
H       -2.16200000      -0.74300000      -1.39800000
H        2.90170000       0.24980000      -3.40620000
