18
Properties=species:S:1:pos:R:3 gdb_84216=T pbc="F F F"
C        0.16060000       1.53390000      -0.07140000
C       -0.01130000       0.01470000      -0.02690000
C        0.74100000      -0.64720000      -1.18720000
C        1.59220000      -1.55650000      -0.68600000
C        3.07100000      -1.27680000      -0.71610000
C        3.29810000      -0.67680000       0.46530000
C        2.11960000      -0.83620000       1.41370000
C        1.22420000      -1.81150000       0.77740000
N        0.57610000      -0.59010000       1.20110000
H        1.21570000       1.80680000      -0.17130000
H       -0.38920000       1.96710000      -0.91270000
H       -0.22170000       1.97110000       0.85550000
H       -1.08750000      -0.21140000       0.02370000
H        0.89520000      -0.11650000      -2.12180000
H        3.72740000      -1.30650000      -1.57590000
H        4.21840000      -0.18960000       0.76500000
H        2.31130000      -0.82920000       2.48020000
H        0.92720000      -2.78740000       1.15730000
