23
Properties=species:S:1:pos:R:3 gdb_57543=T pbc="F F F"
C        0.22970000       1.46150000       0.47630000
C        0.11340000       0.04010000      -0.09740000
C        1.04170000      -0.93070000       0.64450000
C       -1.33880000      -0.44060000      -0.01100000
O        0.37130000       0.04430000      -1.51770000
C        1.64730000       0.41890000      -1.99560000
C        2.50960000      -0.76710000      -2.36650000
C        3.95620000      -0.62000000      -2.56520000
O        3.44060000      -1.25520000      -1.39460000
H        1.26060000       1.82760000       0.46950000
H       -0.38890000       2.15490000      -0.10090000
H       -0.11090000       1.47830000       1.51620000
H        0.78460000      -0.95760000       1.70850000
H        0.93810000      -1.94230000       0.24130000
H        2.09110000      -0.64200000       0.55380000
H       -2.00030000       0.24410000      -0.54930000
H       -1.43480000      -1.43250000      -0.46110000
H       -1.66660000      -0.49690000       1.03110000
H        1.47370000       1.01180000      -2.90460000
H        2.20040000       1.05210000      -1.29100000
H        1.98610000      -1.55140000      -2.91430000
H        4.47780000      -1.27160000      -3.26450000
H        4.42590000       0.34960000      -2.40070000
