24
Properties=species:S:1:pos:R:3 gdb_116757=T pbc="F F F"
C        0.37150000       0.65270000      -0.75920000
C       -0.43140000       0.29170000       0.49610000
N       -1.60250000      -0.55860000       0.36780000
C       -1.95570000      -0.99480000      -0.75900000
O       -3.04670000      -1.78210000      -0.85400000
C       -3.45600000      -2.28510000      -2.15370000
C       -2.36260000      -3.18090000      -2.75190000
C       -4.70170000      -3.11270000      -1.82820000
C       -3.81750000      -1.12380000      -3.08980000
H        1.21360000       1.29450000      -0.48280000
H        0.78100000      -0.23540000      -1.25310000
H       -0.23460000       1.19930000      -1.49010000
H        0.23760000      -0.19200000       1.22100000
H       -0.76010000       1.21730000       0.98820000
H       -1.44740000      -0.79120000      -1.70610000
H       -2.08460000      -3.96440000      -2.04140000
H       -2.72780000      -3.65790000      -3.66660000
H       -1.46280000      -2.61610000      -3.01180000
H       -5.46570000      -2.48280000      -1.36480000
H       -5.11700000      -3.55570000      -2.73800000
H       -4.45230000      -3.91570000      -1.12960000
H       -2.94440000      -0.52100000      -3.35570000
H       -4.24580000      -1.51110000      -4.01930000
H       -4.55550000      -0.47100000      -2.61540000
