22
Properties=species:S:1:pos:R:3 gdb_88464=T pbc="F F F"
C        1.51670000       0.65080000      -0.88250000
C        0.85650000      -0.53680000      -0.22260000
N        1.72480000      -1.62170000       0.27820000
C        0.90280000      -0.86510000       1.23120000
C        1.61410000      -0.08250000       2.32280000
C        0.67890000       0.93040000       2.96720000
C        2.43180000      -0.99490000       3.28090000
C        3.66130000      -0.36700000       2.60300000
O        2.83600000       0.55750000       1.86490000
H        2.42810000       0.92650000      -0.35480000
H        1.76060000       0.41260000      -1.92390000
H        0.83800000       1.51140000      -0.88910000
H       -0.06050000      -0.85950000      -0.71800000
H        1.31180000      -2.53060000       0.08920000
H        0.01410000      -1.36420000       1.62290000
H       -0.20320000       0.43530000       3.38840000
H        1.19200000       1.46770000       3.76930000
H        0.33930000       1.66050000       2.22570000
H        2.31490000      -0.74820000       4.33810000
H        2.30120000      -2.06820000       3.13660000
H        4.37040000       0.15600000       3.25480000
H        4.20530000      -1.04070000       1.93240000
