18
Properties=species:S:1:pos:R:3 gdb_99086=T pbc="F F F"
C       -0.14950000       1.41230000       0.08980000
N        0.03520000      -0.02830000       0.00190000
C       -0.05300000      -0.81320000       1.20250000
C       -1.46670000      -0.93390000       1.77540000
O       -2.44790000      -0.54710000       1.18270000
C       -1.61660000      -1.57460000       3.14870000
O       -2.95750000      -1.68960000       3.51330000
C        0.22390000      -0.62280000      -1.21540000
O        0.28200000      -0.04660000      -2.27770000
H        0.58430000       1.85090000       0.77640000
H       -0.00210000       1.82200000      -0.90930000
H       -1.15790000       1.65600000       0.43690000
H        0.30370000      -1.83090000       0.99660000
H        0.60930000      -0.41200000       1.98360000
H       -1.12120000      -2.55970000       3.13550000
H       -1.05190000      -0.95920000       3.87090000
H       -3.45680000      -1.27090000       2.79410000
H        0.33380000      -1.72180000      -1.11920000
