17
Properties=species:S:1:pos:R:3 gdb_74173=T pbc="F F F"
C       -0.09400000       1.45550000       0.17090000
C       -0.00970000      -0.02790000       0.03340000
C        0.03590000      -0.75240000      -1.09580000
C        0.05680000      -2.20110000      -0.81070000
O        0.12200000      -3.10910000      -1.60490000
C       -0.04180000      -2.35010000       0.71920000
C        0.04610000      -0.91860000       1.27530000
C        1.36830000      -0.65240000       1.99000000
O        1.50510000       0.10770000       2.91090000
H        0.68520000       1.83440000       0.84170000
H       -0.00980000       1.95800000      -0.79490000
H       -1.05150000       1.73860000       0.62630000
H        0.03200000      -0.36120000      -2.10570000
H       -0.99500000      -2.82290000       0.97250000
H        0.74780000      -3.01520000       1.08300000
H       -0.75410000      -0.65600000       1.97480000
H        2.23300000      -1.20760000       1.55810000
