15
Properties=species:S:1:pos:R:3 gdb_27934=T pbc="F F F"
C       -0.02520000       1.45410000       0.14320000
C        0.01090000      -0.01550000      -0.05250000
N       -0.02090000      -0.70560000      -1.12980000
C        0.03550000      -2.04780000      -0.72520000
C        0.00890000      -3.18940000      -1.61250000
O       -0.05500000      -3.16460000      -2.82160000
C        0.10620000      -2.06720000       0.65240000
N        0.24900000      -3.04110000       1.59730000
O        0.09070000      -0.79560000       1.10190000
H        0.87720000       1.80810000       0.65280000
H       -0.09450000       1.93300000      -0.83350000
H       -0.88640000       1.75210000       0.75060000
H        0.05250000      -4.16640000      -1.06740000
H        0.00760000      -3.97500000       1.30400000
H       -0.08410000      -2.80220000       2.51980000
