17
Properties=species:S:1:pos:R:3 gdb_121788=T pbc="F F F"
O        0.03560000       1.37860000      -0.32220000
C       -0.05450000       0.02760000       0.07930000
C       -1.49850000      -0.44500000       0.13050000
O       -2.00150000      -0.32060000      -1.19700000
C       -3.38640000      -0.61580000      -1.32920000
C       -4.24110000       0.37760000      -0.65640000
C       -4.92620000       1.18330000      -0.08740000
C       -3.70070000      -0.70470000      -2.75700000
C       -3.97420000      -0.79800000      -3.92140000
H       -0.49090000       1.45240000      -1.12690000
H        0.51540000      -0.63440000      -0.59210000
H        0.38810000      -0.04470000       1.07830000
H       -1.56050000      -1.49170000       0.46900000
H       -2.07870000       0.18500000       0.81780000
H       -3.58680000      -1.60020000      -0.87040000
H       -5.53590000       1.89940000       0.40660000
H       -4.21350000      -0.87360000      -4.95360000
