22
Properties=species:S:1:pos:R:3 gdb_122857=T pbc="F F F"
C       -0.35990000       1.31210000       0.49570000
O       -0.43000000      -0.07560000       0.71210000
C        0.82990000      -0.65610000       0.96720000
C        0.63980000      -2.15170000       1.17860000
C        1.96910000      -2.86690000       1.47130000
C        1.79320000      -4.34770000       1.68630000
N        2.27110000      -5.20260000       0.88040000
O        1.06900000      -4.57220000       2.81930000
C        0.77890000      -5.91800000       3.16140000
H        0.26960000       1.56050000      -0.37400000
H       -1.37630000       1.66700000       0.30730000
H        0.04490000       1.84420000       1.37180000
H        1.51720000      -0.46990000       0.12270000
H        1.29080000      -0.19710000       1.86040000
H       -0.05800000      -2.30790000       2.00660000
H        0.17760000      -2.57900000       0.28170000
H        2.66910000      -2.74020000       0.64270000
H        2.42450000      -2.43680000       2.37210000
H        2.06360000      -6.16290000       1.15130000
H        1.69580000      -6.49250000       3.34260000
H        0.19160000      -5.87860000       4.07950000
H        0.19350000      -6.41380000       2.37740000
