17
Properties=species:S:1:pos:R:3 gdb_68171=T pbc="F F F"
C       -0.00850000       1.55440000       0.01630000
C        0.00560000       0.04800000      -0.06550000
C        0.73470000      -0.68350000      -1.21870000
C        1.09000000      -1.65300000      -0.07550000
O        0.91960000      -0.58320000       0.89160000
C       -0.05540000      -2.63870000       0.10420000
O        0.04500000      -3.83200000       0.12850000
O       -1.27120000      -2.03940000       0.20720000
C       -1.35330000      -0.59920000       0.18370000
H        1.00410000       1.94550000      -0.10940000
H       -0.64680000       1.97830000      -0.76580000
H       -0.38740000       1.88700000       0.98810000
H        0.15050000      -1.05470000      -2.06310000
H        1.60700000      -0.12640000      -1.56340000
H        2.05850000      -2.14840000      -0.02240000
H       -1.74450000      -0.28110000       1.15580000
H       -2.07540000      -0.33120000      -0.59530000
