21
Properties=species:S:1:pos:R:3 gdb_123200=T pbc="F F F"
C       -0.19460000       1.50880000      -0.11000000
C       -0.08230000      -0.00520000      -0.06610000
O       -1.38490000      -0.55280000       0.02370000
C       -1.40700000      -1.96480000       0.05120000
C       -2.86260000      -2.40060000       0.03460000
N       -3.49380000      -1.94690000      -1.19970000
C       -4.93090000      -2.17210000      -1.21440000
C       -5.53410000      -1.66440000      -2.45050000
N       -6.01670000      -1.24730000      -3.41330000
H        0.79890000       1.96180000      -0.17620000
H       -0.77830000       1.82600000      -0.97880000
H       -0.68800000       1.88420000       0.79100000
H        0.42450000      -0.38430000      -0.96880000
H        0.51980000      -0.32510000       0.80070000
H       -0.88420000      -2.37570000      -0.82690000
H       -0.90760000      -2.34740000       0.95600000
H       -2.91130000      -3.49590000       0.08340000
H       -3.36110000      -2.00930000       0.94050000
H       -3.29490000      -0.95740000      -1.31000000
H       -5.12380000      -3.25140000      -1.15860000
H       -5.47030000      -1.71720000      -0.36220000
