17
Properties=species:S:1:pos:R:3 gdb_25880=T pbc="F F F"
C       -0.10570000       1.48810000       0.04130000
C        0.00040000       0.00120000      -0.03830000
C       -0.02150000      -0.85490000      -1.11040000
C        0.10970000      -2.18870000      -0.61800000
C        0.21780000      -2.10110000       0.75710000
N        0.14930000      -0.77840000       1.09350000
C        0.14470000      -3.38930000      -1.47540000
N        0.04300000      -4.60220000      -0.81720000
O        0.28670000      -3.32950000      -2.68420000
H        0.78010000       1.94170000       0.50320000
H       -0.20350000       1.90480000      -0.96330000
H       -0.97930000       1.81120000       0.62110000
H       -0.12290000      -0.58590000      -2.14970000
H        0.37770000      -2.85740000       1.50900000
H        0.22100000      -0.41940000       2.03040000
H       -0.45430000      -4.63500000       0.05810000
H       -0.09450000      -5.39470000      -1.42660000
