14
Properties=species:S:1:pos:R:3 gdb_21140=T pbc="F F F"
C       -0.00630000       1.37960000       0.12150000
N        0.20710000      -0.05840000       0.07830000
C        0.62720000      -0.58570000      -0.96920000
O        0.94900000      -0.02320000      -2.17610000
N        1.37060000      -1.05710000      -3.05940000
C        1.28780000      -2.12640000      -2.36000000
C        1.61790000      -3.49710000      -2.81290000
O        0.85280000      -1.94340000      -1.08990000
H        0.72310000       1.83440000       0.80130000
H        0.07160000       1.87640000      -0.85250000
H       -0.99930000       1.57760000       0.53720000
H        1.94950000      -3.46540000      -3.85080000
H        2.40970000      -3.92160000      -2.18820000
H        0.74060000      -4.14540000      -2.72820000
