21
Properties=species:S:1:pos:R:3 gdb_117180=T pbc="F F F"
C       -0.15690000       1.45020000      -0.01570000
C       -0.02830000      -0.05980000      -0.00330000
O       -1.36530000      -0.61250000      -0.00500000
C       -1.45260000      -1.94450000       0.00460000
O       -0.50310000      -2.69570000       0.00700000
C       -2.89260000      -2.44290000       0.02630000
O       -2.89590000      -3.83840000      -0.15360000
C       -3.59390000      -2.04030000       1.33830000
C       -5.04210000      -2.53000000       1.38350000
H        0.83800000       1.90500000      -0.01470000
H       -0.69040000       1.78980000      -0.90770000
H       -0.69850000       1.80370000       0.86610000
H        0.50550000      -0.43620000      -0.88110000
H        0.49890000      -0.42240000       0.88420000
H       -3.42330000      -1.96750000      -0.81290000
H       -1.96800000      -4.11150000      -0.09380000
H       -3.02710000      -2.46960000       2.17400000
H       -3.54920000      -0.95060000       1.43950000
H       -5.51150000      -2.27560000       2.33840000
H       -5.63790000      -2.07400000       0.58480000
H       -5.08170000      -3.61460000       1.25640000
