16
Properties=species:S:1:pos:R:3 gdb_33909=T pbc="F F F"
N        0.22770000      -1.14850000       0.15470000
C        0.11430000      -0.00130000       0.04850000
C       -0.08200000       1.41060000      -0.04510000
C        0.20480000       2.21430000      -1.25410000
N        1.08600000       2.41800000      -0.09680000
C        0.36940000       3.23850000       0.96520000
C       -0.64610000       4.33880000       0.57350000
N       -1.71690000       3.30160000       0.46900000
C       -0.81800000       2.26920000       1.02510000
H        0.71550000       1.71130000      -2.06850000
H       -0.52620000       2.96090000      -1.54640000
H        1.04480000       3.42800000       1.79640000
H       -0.79160000       5.06000000       1.38620000
H       -0.46400000       4.89060000      -0.35530000
H       -2.54970000       3.48180000       1.01470000
H       -1.13360000       1.73610000       1.92150000
