15
Properties=species:S:1:pos:R:3 gdb_9194=T pbc="F F F"
C        0.10310000       1.16810000      -0.30690000
O       -0.10500000      -0.11050000       0.29870000
C       -1.33860000      -0.63480000       0.09940000
O       -2.21660000      -0.10430000      -0.54390000
N       -1.44110000      -1.82860000       0.75340000
C       -2.58730000      -2.69850000       0.54870000
C       -2.24830000      -3.94260000      -0.14170000
C       -1.95310000      -4.97290000      -0.68470000
H        1.12990000       1.44430000      -0.06530000
H       -0.03130000       1.11210000      -1.39010000
H       -0.59390000       1.90750000       0.09570000
H       -0.59730000      -2.21790000       1.14150000
H       -3.06050000      -2.93220000       1.51110000
H       -3.30900000      -2.11780000      -0.03390000
H       -1.70210000      -5.87900000      -1.17840000
