15
Properties=species:S:1:pos:R:3 gdb_105141=T pbc="F F F"
N       -0.05490000       1.41890000      -0.44260000
C       -0.01970000       0.15190000       0.27880000
C       -1.38680000      -0.49810000       0.19780000
O       -1.71670000      -1.10370000      -1.05610000
C       -1.56250000      -1.97400000       0.07440000
C       -0.45310000      -2.88710000       0.08560000
C        0.43960000      -3.69110000       0.11360000
C       -2.47480000       0.24420000       0.81700000
N       -3.33500000       0.80600000       1.34530000
H        0.79480000       1.94550000      -0.27500000
H       -0.11050000       1.24720000      -1.44160000
H        0.71650000      -0.57830000      -0.08580000
H        0.20580000       0.35370000       1.33190000
H       -2.50240000      -2.38320000       0.44210000
H        1.23330000      -4.39750000       0.13460000
