23
Properties=species:S:1:pos:R:3 gdb_110931=T pbc="F F F"
C       -0.44300000       1.75700000       0.35540000
C       -0.50610000       0.24640000       0.09560000
C        0.22170000      -0.53720000       1.17100000
C       -0.44920000      -1.15620000       2.35490000
O       -1.72620000      -1.70380000       2.00500000
C       -1.07540000      -2.72960000       1.19480000
C       -1.70950000      -2.98120000      -0.16250000
C       -1.00620000      -4.11950000      -0.91040000
C        0.28360000      -2.04770000       1.37070000
H        0.59200000       2.11710000       0.36370000
H       -0.98260000       2.31370000      -0.41690000
H       -0.88970000       2.00770000       1.32320000
H       -1.55170000      -0.07140000       0.06930000
H       -0.07540000       0.02440000      -0.88890000
H        1.18380000      -0.10330000       1.44760000
H       -0.27620000      -0.91830000       3.39870000
H       -1.08100000      -3.66730000       1.77080000
H       -2.76500000      -3.23400000      -0.00060000
H       -1.69130000      -2.07070000      -0.76620000
H        0.04630000      -3.87980000      -1.09630000
H       -1.03900000      -5.05400000      -0.33920000
H       -1.48050000      -4.30500000      -1.87820000
H        1.22520000      -2.56970000       1.47970000
