16
Properties=species:S:1:pos:R:3 gdb_44495=T pbc="F F F"
N       -0.04110000       1.23000000      -0.57160000
C       -0.01280000       0.08390000      -0.04140000
C       -1.28080000      -0.71010000       0.20790000
C       -1.02120000      -2.06130000       0.85300000
C        0.04240000      -2.13610000       1.98260000
O        0.27350000      -3.55560000       1.65890000
C        0.19230000      -2.88830000       0.34690000
C        1.12100000      -1.78630000       0.92290000
O        1.16670000      -0.50310000       0.33700000
H        0.90600000       1.60430000      -0.65710000
H       -1.94410000      -0.10390000       0.83370000
H       -1.79950000      -0.83160000      -0.74880000
H       -1.91990000      -2.65130000       1.04200000
H       -0.02630000      -1.85530000       3.03330000
H        0.30190000      -3.50180000      -0.54700000
H        2.14080000      -2.08780000       1.15510000
