17
Properties=species:S:1:pos:R:3 gdb_127027=T pbc="F F F"
C       -0.11990000       1.45870000      -0.01650000
C       -0.02250000      -0.05330000       0.01840000
O       -1.36660000      -0.57030000      -0.02580000
C       -1.48270000      -1.89090000      -0.00370000
N       -2.67440000      -2.48300000      -0.04020000
N       -2.30980000      -3.76450000       0.00090000
C       -3.26350000      -4.85340000      -0.01710000
N       -1.00650000      -3.96110000       0.05830000
N       -0.45290000      -2.76720000       0.05620000
H        0.88310000       1.89390000       0.01560000
H       -0.61520000       1.79540000      -0.93130000
H       -0.68750000       1.83160000       0.84060000
H        0.54050000      -0.44630000      -0.83510000
H        0.46850000      -0.41020000       0.93030000
H       -3.85040000      -4.81610000      -0.93740000
H       -2.69560000      -5.78140000       0.03200000
H       -3.93310000      -4.77220000       0.84180000
