19
Properties=species:S:1:pos:R:3 gdb_103730=T pbc="F F F"
C       -0.05970000       1.52310000       0.10550000
C       -0.00300000       0.00730000       0.04440000
C       -1.29650000      -0.63140000      -0.44140000
O       -1.61750000      -0.20320000      -1.76130000
C        1.29900000      -0.64870000      -0.31830000
C        0.84840000      -0.68880000       1.12890000
O        1.56920000       0.11320000       2.02230000
C        0.46540000      -2.00830000       1.71040000
O        0.02970000      -2.95530000       1.09910000
H        0.90860000       1.96210000       0.35090000
H       -0.38830000       1.90380000      -0.86500000
H       -0.79130000       1.85950000       0.85090000
H       -1.23950000      -1.72170000      -0.37480000
H       -2.13320000      -0.29740000       0.18260000
H       -0.96410000      -0.58640000      -2.35580000
H        1.27120000      -1.60240000      -0.83650000
H        2.16120000      -0.02290000      -0.51990000
H        0.94780000       0.63150000       2.54500000
H        0.64830000      -2.05560000       2.80700000
