20
Properties=species:S:1:pos:R:3 gdb_64707=T pbc="F F F"
C        0.01470000       1.61660000       0.20640000
C        0.02170000       0.10010000       0.06320000
C       -1.39210000      -0.47070000      -0.17540000
C       -1.99150000      -0.04480000      -1.43480000
C       -2.46460000       0.30770000      -2.48250000
C        1.07090000      -0.52130000      -0.94300000
C        1.67810000      -1.30130000       0.22540000
N        2.14360000      -0.28180000       1.19940000
C        0.72170000      -0.69510000       1.18860000
H        1.02100000       1.97540000       0.43270000
H       -0.33270000       2.09370000      -0.71530000
H       -0.65320000       1.93060000       1.01780000
H       -1.34600000      -1.56780000      -0.15070000
H       -2.04290000      -0.17350000       0.65850000
H       -2.89280000       0.61720000      -3.40340000
H        0.59720000      -1.14640000      -1.70270000
H        1.75020000       0.18620000      -1.42410000
H        2.11920000      -2.29030000       0.21130000
H        2.59070000      -0.78070000       1.96840000
H        0.25730000      -1.10980000       2.07710000
