17
Properties=species:S:1:pos:R:3 gdb_58069=T pbc="F F F"
C        0.03270000       1.56750000       0.00720000
C        0.01860000       0.03510000       0.04540000
C        0.79820000      -0.51990000       1.24230000
C       -1.43610000      -0.54490000       0.02400000
O       -1.45270000      -1.96180000       0.04420000
C       -2.18050000      -0.10860000       1.22520000
N       -2.72450000       0.26460000       2.17200000
C       -2.15040000      -0.05780000      -1.18390000
N       -2.65340000       0.27640000      -2.16840000
H        1.06570000       1.92270000      -0.03910000
H       -0.49770000       1.96140000      -0.86390000
H       -0.42520000       1.98660000       0.90880000
H        0.47140000      -0.34170000      -0.88230000
H        0.39150000      -0.13970000       2.18470000
H        0.76520000      -1.61070000       1.27220000
H        1.84330000      -0.20530000       1.17620000
H       -1.02990000      -2.27330000      -0.76580000
