20
Properties=species:S:1:pos:R:3 gdb_122579=T pbc="F F F"
C       -0.11520000       1.35050000      -0.01700000
O       -0.06870000      -0.05520000      -0.05850000
C        0.66290000      -0.54730000      -1.15930000
C        0.61900000      -2.06960000      -1.11610000
C        1.42240000      -2.73060000      -2.22620000
C        1.33030000      -4.28180000      -2.26120000
N        0.71550000      -4.60720000      -3.56010000
C        0.52380000      -3.49600000      -4.13500000
O        0.88210000      -2.34080000      -3.52590000
H        0.89100000       1.79110000       0.07140000
H       -0.59370000       1.77110000      -0.91570000
H       -0.70180000       1.63340000       0.86040000
H        0.23690000      -0.18170000      -2.10690000
H        1.70880000      -0.19300000      -1.11660000
H        1.01490000      -2.40910000      -0.15120000
H       -0.42290000      -2.40540000      -1.17160000
H        2.46040000      -2.38040000      -2.20750000
H        2.31040000      -4.76280000      -2.18380000
H        0.70860000      -4.67250000      -1.44770000
H        0.08060000      -3.36420000      -5.11610000
