21
Properties=species:S:1:pos:R:3 gdb_111647=T pbc="F F F"
C       -1.06080000       1.01510000       0.49730000
C        0.22830000       0.32920000       0.02610000
C        0.89430000      -0.44760000       1.14600000
C        0.64040000      -1.88220000       1.49110000
C       -0.02540000      -2.78930000       0.44780000
C        0.89960000      -2.79910000      -0.78940000
C        2.20660000      -2.10670000      -0.36590000
O        3.23790000      -2.13500000      -0.99210000
C        2.01580000      -1.47450000       0.97580000
H       -0.86120000       1.70440000       1.32500000
H       -1.51970000       1.59110000      -0.31200000
H       -1.79500000       0.28230000       0.84850000
H        0.00100000      -0.31700000      -0.82630000
H        0.92990000       1.08570000      -0.34680000
H        1.07470000       0.17690000       2.01980000
H        0.50650000      -2.14190000       2.53550000
H       -0.11140000      -3.79800000       0.86170000
H       -1.04190000      -2.46030000       0.20870000
H        1.14030000      -3.80910000      -1.13230000
H        0.48100000      -2.27580000      -1.65530000
H        2.89530000      -1.37450000       1.60010000
