14
Properties=species:S:1:pos:R:3 gdb_80787=T pbc="F F F"
O        0.13780000       1.38240000      -0.12270000
C        0.09580000       0.00470000      -0.06600000
C        0.01390000      -0.67360000       1.34380000
N       -1.40950000      -0.10990000       1.40030000
C       -1.33050000      -0.68840000      -0.03160000
C       -2.39850000      -0.62570000      -0.96830000
C       -3.28920000      -0.59580000      -1.77600000
C       -0.61220000      -1.89140000       0.65150000
O       -0.67800000      -3.07580000       0.72700000
H       -0.52410000       1.69910000       0.51000000
H        0.81460000      -0.40280000      -0.77620000
H        0.69630000      -0.59220000       2.18550000
H       -2.02090000      -0.67600000       1.99380000
H       -4.07550000      -0.56870000      -2.48960000
