14
Properties=species:S:1:pos:R:3 gdb_16060=T pbc="F F F"
O       -0.01010000       1.39110000      -0.02480000
C       -0.04360000       0.00840000      -0.00780000
C       -0.44990000      -0.74830000       1.19090000
O       -1.40200000       0.00040000       1.93850000
C       -2.37210000      -0.07130000       0.84190000
C       -1.37230000      -0.77460000      -0.06050000
C       -1.66690000      -1.83980000      -1.01810000
O       -2.78580000      -2.19100000      -1.31540000
H       -0.32030000       1.68440000       0.84320000
H        0.73840000      -0.44010000      -0.61530000
H        0.09530000      -1.53750000       1.69760000
H       -3.21780000      -0.70270000       1.12300000
H       -2.71570000       0.91920000       0.52990000
H       -0.76940000      -2.31710000      -1.47390000
