14
Properties=species:S:1:pos:R:3 gdb_28855=T pbc="F F F"
O       -0.10890000       1.32030000      -0.26920000
C        0.03790000      -0.01270000      -0.08410000
C        1.26710000      -0.60890000      -0.08890000
C        1.53380000      -1.98150000       0.22880000
N        0.77310000      -3.02200000       0.19530000
C       -0.53780000      -3.02990000      -0.26960000
O       -0.94920000      -3.91520000      -0.98930000
C       -1.46760000      -1.97850000       0.21230000
C       -1.22160000      -0.65510000       0.21120000
H        0.75260000       1.72480000      -0.42580000
H        2.13990000       0.03010000      -0.20900000
H        2.55900000      -2.17040000       0.56040000
H       -2.46710000      -2.33130000       0.44900000
H       -2.03140000       0.03660000       0.42450000
