18
Properties=species:S:1:pos:R:3 gdb_41214=T pbc="F F F"
C        0.08180000       1.58640000      -0.28210000
C        1.57770000       1.41150000       0.17600000
C        1.06380000       0.11080000       0.84610000
C        0.93690000      -1.40490000       0.99260000
C       -0.52520000      -0.75350000       1.11800000
C       -1.36450000      -1.30000000       2.29760000
O       -0.36450000      -0.63860000       3.17150000
C       -0.00430000       0.25460000       2.05000000
N       -0.08190000       0.07760000      -0.15050000
H       -0.50070000       2.22640000       0.38730000
H       -0.08970000       1.90130000      -1.31290000
H        2.25340000       1.24430000      -0.66520000
H        1.99010000       2.16600000       0.84790000
H        1.10990000      -1.97150000       0.07810000
H        1.30560000      -1.88680000       1.89650000
H       -2.35410000      -0.84990000       2.43440000
H       -1.39730000      -2.38210000       2.45140000
H       -0.48370000       1.22380000       2.18810000
