19
Properties=species:S:1:pos:R:3 gdb_102223=T pbc="F F F"
C       -0.76010000       1.72500000      -0.92020000
N       -0.78960000       0.31240000      -0.62040000
C        0.23200000      -0.43920000      -0.69710000
C        1.66660000      -0.09020000      -1.07000000
O        2.10780000      -0.74140000      -2.23660000
N       -0.03920000      -1.78730000      -0.35340000
C        0.75640000      -2.90130000      -0.32890000
C        0.03860000      -4.15360000       0.14540000
O        1.93340000      -2.92310000      -0.66090000
H        0.14070000       2.08990000      -1.42900000
H       -1.62420000       1.96440000      -1.54960000
H       -0.88190000       2.29650000       0.00850000
H        1.73180000       0.98350000      -1.25030000
H        2.30670000      -0.31800000      -0.20480000
H        2.28760000      -1.65410000      -1.95410000
H       -1.01030000      -1.90210000      -0.09470000
H       -0.67550000      -4.48740000      -0.61520000
H        0.77670000      -4.93860000       0.30410000
H       -0.51640000      -3.97520000       1.07120000
