21
Properties=species:S:1:pos:R:3 gdb_39469=T pbc="F F F"
C        0.01990000       1.56950000      -0.11110000
C        1.53880000       1.84990000      -0.02300000
C        2.01790000       1.98950000       1.44180000
C        1.75500000       0.75880000       2.33000000
C        0.29740000       0.27770000       2.40930000
O       -0.19320000      -0.49170000       1.32080000
C       -0.07980000       0.03510000      -0.00820000
C        1.22700000      -0.39810000      -0.65680000
C        2.10620000       0.60210000      -0.67270000
H       -0.57820000       2.09590000       0.63660000
H       -0.34850000       1.86770000      -1.09730000
H        1.81170000       2.76290000      -0.56390000
H        3.09330000       2.20790000       1.45570000
H        1.52190000       2.86530000       1.88080000
H        2.38170000      -0.08200000       2.01500000
H        2.06330000       1.01180000       3.35260000
H        0.19490000      -0.39500000       3.26730000
H       -0.36140000       1.13980000       2.60510000
H       -0.95990000      -0.35600000      -0.52880000
H        1.40350000      -1.41680000      -0.98190000
H        3.13260000       0.53980000      -1.01960000
