16
Properties=species:S:1:pos:R:3 gdb_97634=T pbc="F F F"
O        0.19100000       1.27330000      -0.56570000
C        0.03270000       0.07790000       0.18010000
C       -1.32840000      -0.46120000       0.13560000
C       -2.46770000      -0.84860000       0.10610000
C       -3.82400000      -1.38480000       0.04500000
C       -3.82460000      -2.94190000      -0.10050000
O       -5.12430000      -3.45370000      -0.22850000
C       -4.61790000      -1.01970000       1.22930000
N       -5.26560000      -0.79650000       2.15990000
H       -0.44620000       1.91330000      -0.23130000
H        0.73180000      -0.64300000      -0.25750000
H        0.33100000       0.21100000       1.23190000
H       -4.34720000      -0.98470000      -0.83330000
H       -3.28750000      -3.18750000      -1.01960000
H       -3.27590000      -3.37410000       0.74650000
H       -5.57520000      -3.36120000       0.61890000
