17
Properties=species:S:1:pos:R:3 gdb_126413=T pbc="F F F"
C        0.10600000       1.57230000       0.00770000
C       -0.01070000       0.04880000       0.00290000
C       -1.42460000      -0.48310000       0.01300000
N       -2.41300000       0.36680000       0.02350000
N       -3.65590000      -0.13880000       0.03210000
C       -4.06350000      -1.47670000       0.03150000
O       -5.24540000      -1.77280000       0.04020000
C       -2.92660000      -2.38670000       0.01950000
C       -1.66390000      -1.90090000       0.01070000
H        1.15830000       1.86970000      -0.00010000
H       -0.38380000       2.00800000      -0.86680000
H       -0.36890000       2.00130000       0.89360000
H        0.50490000      -0.36420000      -0.87540000
H        0.51980000      -0.37090000       0.86910000
H       -4.39620000       0.55080000       0.04020000
H       -3.15110000      -3.44680000       0.01820000
H       -0.81040000      -2.57300000       0.00180000
