18
Properties=species:S:1:pos:R:3 gdb_79265=T pbc="F F F"
O        0.02090000       1.42420000       0.03110000
C        0.02520000       0.01440000      -0.01980000
C       -1.36830000      -0.54380000      -0.24490000
C       -1.58480000      -0.61170000      -1.71880000
C       -0.33140000      -0.07780000      -2.39310000
C        0.65210000      -0.57250000      -1.30730000
O        2.01010000      -0.24390000      -1.41150000
C        0.21120000      -2.04140000      -1.16090000
N       -1.24640000      -1.84760000      -0.95430000
H        0.94090000       1.70400000      -0.04740000
H        0.51090000      -0.41020000       0.87180000
H       -2.16350000      -0.44180000       0.48290000
H       -2.56580000      -0.57640000      -2.17630000
H       -0.13910000      -0.52860000      -3.37330000
H       -0.33250000       1.01040000      -2.47960000
H        2.32130000      -0.48070000      -2.29100000
H        0.38980000      -2.64970000      -2.05400000
H        0.65780000      -2.54040000      -0.29590000
