21
Properties=species:S:1:pos:R:3 gdb_119165=T pbc="F F F"
C        0.11060000       1.62090000      -0.06700000
C        0.21290000       0.10860000      -0.18380000
O        0.53200000      -0.39850000       1.09890000
C        0.63050000      -1.78740000       1.27250000
C       -0.54350000      -2.70610000       1.08050000
C        0.64490000      -2.77680000       0.13590000
C        1.56030000      -2.02900000       2.42770000
C        1.06930000      -2.22210000       3.79630000
O        1.53740000      -3.32750000       3.01330000
H        1.05590000       2.04120000       0.28770000
H       -0.12360000       2.06170000      -1.04050000
H       -0.67490000       1.89950000       0.64090000
H       -0.74060000      -0.30620000      -0.54670000
H        0.99050000      -0.16810000      -0.91090000
H       -0.67420000      -3.51310000       1.79190000
H       -1.46020000      -2.27280000       0.69560000
H        0.50230000      -2.42260000      -0.87760000
H        1.31440000      -3.62530000       0.22590000
H        2.55670000      -1.60610000       2.29280000
H        1.69980000      -1.95340000       4.64190000
H       -0.00290000      -2.20770000       3.98170000
