22
Properties=species:S:1:pos:R:3 gdb_50770=T pbc="F F F"
O       -0.12130000      -0.04550000       0.34520000
C       -0.03540000       1.16380000       0.27290000
N        1.11400000       1.86440000       0.06030000
C        2.36430000       1.11290000      -0.07140000
C        3.42280000       1.77180000      -0.96190000
C        2.91560000       2.29070000      -2.31880000
C        2.33280000       3.71160000      -2.25410000
C        1.03280000       3.86240000      -1.45480000
C        1.07720000       3.31860000      -0.01610000
H       -0.91340000       1.83310000       0.37630000
H        2.79300000       0.92880000       0.92410000
H        2.08340000       0.13510000      -0.47140000
H        3.91460000       2.59400000      -0.42640000
H        4.20110000       1.01650000      -1.11890000
H        3.75280000       2.30070000      -3.02570000
H        2.17430000       1.59410000      -2.73190000
H        3.09520000       4.37710000      -1.82520000
H        2.15520000       4.07440000      -3.27340000
H        0.76490000       4.92560000      -1.41080000
H        0.21230000       3.35480000      -1.97760000
H        0.18040000       3.65140000       0.51690000
H        1.93280000       3.73380000       0.53040000
