18
Properties=species:S:1:pos:R:3 gdb_101315=T pbc="F F F"
O        0.22270000       1.26750000      -0.44850000
C        0.09110000      -0.09830000      -0.06460000
C       -1.37570000      -0.53460000      -0.15010000
O       -1.90200000      -0.19770000      -1.41810000
C       -1.51610000      -2.02750000       0.03590000
N       -1.67440000      -2.51290000       1.39980000
C       -2.79550000      -2.69540000       0.45050000
C       -4.04050000      -1.93250000       0.74870000
O       -5.13420000      -2.28330000       0.38480000
H       -0.11860000       1.81340000       0.26810000
H        0.68560000      -0.66580000      -0.78890000
H        0.49320000      -0.28530000       0.93970000
H       -1.92890000      -0.02440000       0.65640000
H       -1.49280000       0.64680000      -1.65200000
H       -0.91190000      -2.61340000      -0.65660000
H       -1.19180000      -3.39560000       1.54040000
H       -2.97960000      -3.68180000       0.03240000
H       -3.88810000      -1.01320000       1.35340000
