15
Properties=species:S:1:pos:R:3 gdb_43744=T pbc="F F F"
N       -1.04970000       0.93710000      -0.37040000
C       -0.43430000      -0.12070000      -0.11610000
O        0.93530000      -0.41840000      -0.21820000
C        0.65190000      -1.80920000       0.09210000
C        1.39570000      -2.81770000      -0.73960000
C        0.94900000      -4.18330000      -0.47680000
N        0.57960000      -5.25450000      -0.25320000
C        0.11740000      -1.90450000       1.47260000
C       -0.81070000      -1.49900000       0.31420000
H       -0.41580000       1.67570000      -0.67930000
H        1.26110000      -2.58890000      -1.80270000
H        2.47030000      -2.74700000      -0.52950000
H       -0.07040000      -2.90710000       1.84430000
H        0.41680000      -1.17360000       2.21660000
H       -1.71060000      -2.04080000       0.06470000
