17
Properties=species:S:1:pos:R:3 gdb_109140=T pbc="F F F"
O        0.10920000       1.43210000      -0.00240000
C        0.03860000       0.02210000      -0.03240000
C       -1.39520000      -0.42120000       0.04160000
C       -2.43610000       0.40180000      -0.00210000
C       -3.83660000      -0.12400000       0.10450000
C       -3.99360000      -1.59130000      -0.26550000
O       -5.04610000      -2.07790000      -0.57480000
O       -2.88660000      -2.37300000      -0.25510000
C       -1.61260000      -1.89960000       0.19410000
H        1.02470000       1.69090000      -0.13920000
H        0.48970000      -0.38490000      -0.95490000
H        0.60050000      -0.42750000       0.80680000
H       -2.28550000       1.47060000      -0.09860000
H       -4.22080000      -0.00750000       1.12920000
H       -4.53520000       0.43080000      -0.52840000
H       -0.87740000      -2.46680000      -0.38880000
H       -1.48360000      -2.20350000       1.24410000
