13
Properties=species:S:1:pos:R:3 gdb_27139=T pbc="F F F"
O        0.71120000       1.12010000      -0.32310000
C        0.22580000      -0.11840000      -0.15080000
C       -0.37660000      -0.91090000      -1.07640000
N       -0.67120000      -0.78130000      -2.42180000
C        0.14930000      -1.25350000      -3.42760000
O        1.19000000      -1.83330000      -3.25860000
O       -0.71240000      -2.09000000      -0.41980000
C       -0.28620000      -1.91010000       0.83290000
N        0.27510000      -0.76180000       1.06600000
H        1.10010000       1.38840000       0.51850000
H       -1.52960000      -0.32670000      -2.70060000
H       -0.27850000      -1.02840000      -4.42470000
H       -0.44190000      -2.71970000       1.52890000
