17
Properties=species:S:1:pos:R:3 gdb_36300=T pbc="F F F"
N        0.07700000      -1.06950000       0.48530000
C        0.04210000       0.01460000       0.08880000
C       -0.03020000       1.39610000      -0.39980000
N        1.25200000       2.06140000      -0.22340000
C        1.34190000       3.51570000      -0.28500000
C        0.09020000       4.37850000      -0.10090000
C       -0.37550000       4.04420000       1.30050000
C        0.46450000       3.20650000       1.91670000
C        1.58130000       2.79520000       1.01670000
H       -0.25610000       1.37480000      -1.47210000
H       -0.87760000       1.88410000       0.10560000
H        2.14820000       3.89130000      -0.90750000
H        0.34520000       5.44080000      -0.19970000
H       -0.68060000       4.18150000      -0.85810000
H       -1.29730000       4.43420000       1.71790000
H        0.35440000       2.82780000       2.92570000
H        2.56430000       2.57220000       1.41830000
