17
Properties=species:S:1:pos:R:3 gdb_1899=T pbc="F F F"
C       -0.14800000       1.57410000       0.02790000
C        0.02900000       0.06400000       0.04270000
C        1.18590000      -0.65680000      -0.73000000
C        2.18170000      -0.16040000       0.35780000
C        0.90250000      -0.64860000       1.11160000
O        0.62310000      -0.58870000       2.46500000
C        0.91590000      -1.89550000       0.17140000
H        0.78940000       2.12510000       0.13590000
H       -0.61440000       1.89470000      -0.91000000
H       -0.80770000       1.88310000       0.84570000
H       -0.94290000      -0.42380000      -0.09870000
H        1.34960000      -0.66410000      -1.80520000
H        3.08360000      -0.76520000       0.49180000
H        2.41620000       0.90390000       0.38940000
H        1.30050000      -1.08180000       2.94010000
H       -0.03700000      -2.41210000       0.02880000
H        1.74700000      -2.59590000       0.29390000
