17
Properties=species:S:1:pos:R:3 gdb_114165=T pbc="F F F"
O       -0.02510000       1.36600000      -0.26290000
C        0.03830000       0.03430000       0.21050000
C       -1.32510000      -0.63290000       0.08720000
N       -1.86070000      -0.59950000      -1.32650000
C       -2.15410000      -2.05310000      -1.23460000
C       -0.85440000      -2.79650000      -1.10290000
C       -1.45040000      -2.16230000       0.12570000
C       -3.37490000      -2.62100000      -1.69750000
N       -4.37770000      -3.06080000      -2.07410000
H       -0.30270000       1.30460000      -1.18560000
H        0.79600000      -0.55050000      -0.33170000
H        0.34360000       0.08190000       1.26120000
H       -2.03020000      -0.16640000       0.78210000
H       -2.72240000      -0.06440000      -1.36740000
H       -0.93040000      -3.87790000      -1.13190000
H        0.01560000      -2.37660000      -1.59730000
H       -1.73510000      -2.74790000       0.98930000
