19
Properties=species:S:1:pos:R:3 gdb_97284=T pbc="F F F"
C       -0.08790000       1.24050000      -0.57490000
N       -0.01110000      -0.13820000      -0.13810000
C        0.41630000      -0.98820000      -0.97060000
N        0.53260000      -2.35080000      -0.65550000
C        0.17010000      -2.81020000       0.61580000
N        0.26200000      -4.03600000       0.93590000
C        1.01280000      -3.25400000      -1.61610000
N        1.35190000      -2.88420000      -2.77670000
C        1.83340000      -3.90430000      -3.68520000
H        0.52350000       1.86800000       0.08370000
H        0.24440000       1.39600000      -1.61300000
H       -1.12050000       1.59670000      -0.48340000
H        0.73520000      -0.78060000      -1.99450000
H       -0.18080000      -1.98860000       1.24040000
H       -0.04720000      -4.16880000       1.89630000
H        1.04900000      -4.27560000      -1.23170000
H        1.20340000      -3.92270000      -4.58190000
H        2.84750000      -3.65110000      -4.01530000
H        1.85010000      -4.91510000      -3.24900000
