18
Properties=species:S:1:pos:R:3 gdb_88922=T pbc="F F F"
C       -0.17140000       1.48270000       0.03070000
N        0.09040000       0.05280000       0.03530000
C        1.45140000      -0.41000000      -0.18820000
C        0.80260000      -0.56380000       1.14870000
C        1.33010000       0.20800000       2.33970000
C        0.26990000       0.49820000       3.39370000
O       -0.90490000       0.24270000       3.24760000
C        0.76780000       1.12130000       4.61130000
C        1.19960000       1.63860000       5.60880000
H        0.67600000       2.10890000       0.35550000
H       -0.43180000       1.78630000      -0.98810000
H       -1.02610000       1.68910000       0.68130000
H        1.56990000      -1.26060000      -0.85490000
H        2.24140000       0.33840000      -0.26740000
H        0.39740000      -1.53740000       1.41780000
H        2.14030000      -0.35400000       2.82420000
H        1.78400000       1.16410000       2.05350000
H        1.56040000       2.09570000       6.49830000
