20
Properties=species:S:1:pos:R:3 gdb_18362=T pbc="F F F"
C       -0.08000000       1.53980000       0.04800000
C        0.11420000       0.02670000      -0.03270000
C        1.05350000      -0.45430000      -1.15960000
C        1.42840000      -1.89330000      -0.75190000
C        1.53600000      -1.84760000       0.78110000
C        2.74970000      -1.08650000       1.35110000
O        1.95160000       0.08020000       1.64010000
C        0.73470000      -0.59140000       1.22510000
H        0.86860000       2.02850000       0.28740000
H       -0.44660000       1.94220000      -0.90190000
H       -0.80280000       1.80980000       0.82550000
H       -0.86330000      -0.46010000      -0.16900000
H        0.59140000      -0.39820000      -2.14930000
H        1.94660000       0.18150000      -1.18190000
H        0.62770000      -2.58420000      -1.04160000
H        2.34780000      -2.25020000      -1.22750000
H        1.31270000      -2.79880000       1.26530000
H        3.18170000      -1.51620000       2.26420000
H        3.56080000      -0.86810000       0.64370000
H        0.03290000      -0.68350000       2.06230000
