23
Properties=species:S:1:pos:R:3 gdb_112817=T pbc="F F F"
C       -0.11180000       1.47470000      -0.44290000
C       -0.00050000      -0.01170000      -0.09050000
C       -1.35930000      -0.61960000       0.21270000
O       -2.26700000      -0.56880000      -0.91610000
C       -2.49640000      -1.99840000      -0.88490000
C       -2.18200000      -2.65800000      -2.21260000
C       -1.48380000      -2.15800000       0.29040000
O       -0.27950000      -2.82540000       0.02370000
C       -0.32130000      -4.21260000       0.28290000
H        0.86710000       1.89520000      -0.69160000
H       -0.77280000       1.61450000      -1.30290000
H       -0.52240000       2.05300000       0.39260000
H        0.46340000      -0.56550000      -0.91190000
H        0.64360000      -0.15270000       0.78650000
H       -1.80860000      -0.11550000       1.08150000
H       -3.53290000      -2.20990000      -0.58570000
H       -1.11830000      -2.57420000      -2.44670000
H       -2.45790000      -3.71810000      -2.20030000
H       -2.75590000      -2.16810000      -3.00520000
H       -1.92880000      -2.53640000       1.22060000
H        0.68020000      -4.60600000       0.09360000
H       -0.59320000      -4.41640000       1.33000000
H       -1.03500000      -4.73710000      -0.36800000
