15
Properties=species:S:1:pos:R:3 gdb_20215=T pbc="F F F"
C       -0.03060000       1.52100000      -0.00010000
C        1.12550000       2.19480000       0.01940000
C        2.36000000       1.41370000       0.06670000
C        2.44840000       0.10670000       0.79530000
C        1.14420000      -0.68870000       0.79970000
C        0.05800000       0.06290000       0.00800000
C        1.21680000      -0.64790000      -0.69440000
N        2.51920000       0.09780000      -0.69280000
H       -0.99920000       2.00510000      -0.04710000
H        1.18770000       3.27600000      -0.01200000
H        3.29500000       1.96270000       0.01520000
H        3.30830000      -0.15170000       1.40430000
H        0.90300000      -1.49260000       1.48120000
H       -0.86790000      -0.50070000      -0.04840000
H        1.05570000      -1.39260000      -1.46200000
