15
Properties=species:S:1:pos:R:3 gdb_55570=T pbc="F F F"
N        1.27110000      -0.43390000      -0.22360000
C        0.04700000       0.10720000       0.01620000
N       -0.12240000       1.35300000       0.23670000
N       -1.03550000      -0.82300000      -0.04740000
C       -0.99330000      -2.19090000      -0.13160000
O        0.01650000      -2.86180000      -0.15570000
C       -2.39790000      -2.82020000      -0.22290000
C       -2.38050000      -4.26370000      -0.02540000
N       -2.40650000      -5.40650000       0.13310000
H        2.04910000       0.17000000      -0.01830000
H        1.37860000      -1.43480000      -0.15030000
H       -1.10090000       1.60050000       0.35630000
H       -1.94340000      -0.38900000       0.01300000
H       -3.07100000      -2.36370000       0.51180000
H       -2.81320000      -2.59710000      -1.21360000
