18
Properties=species:S:1:pos:R:3 gdb_85288=T pbc="F F F"
C        0.17370000       1.50180000      -0.09090000
C       -0.07130000       0.01010000       0.06450000
O        0.42670000      -0.67660000      -1.11000000
C        1.15350000      -1.78600000      -0.77890000
N        1.52480000      -2.68990000      -1.57760000
C        1.42160000      -1.75850000       0.68600000
O        2.06820000      -0.53120000       1.08640000
C        0.65020000      -0.63990000       1.24350000
C        0.09270000      -0.55420000       2.63520000
H        1.24750000       1.70080000      -0.10790000
H       -0.27100000       1.86370000      -1.02100000
H       -0.27800000       2.05120000       0.74110000
H       -1.14670000      -0.20110000       0.13640000
H        1.18450000      -2.49680000      -2.52180000
H        1.70820000      -2.65960000       1.21510000
H        0.03880000       0.48760000       2.96870000
H       -0.91640000      -0.97620000       2.67740000
H        0.73200000      -1.10010000       3.33260000
