14
Properties=species:S:1:pos:R:3 gdb_31315=T pbc="F F F"
O        0.51830000       0.63190000       0.83910000
C       -0.06830000       0.13410000      -0.34370000
C       -1.41830000      -0.48680000      -0.13060000
C       -2.12550000      -0.63460000       1.05060000
N       -3.30460000      -1.27210000       0.68580000
C       -3.25010000      -1.47110000      -0.65140000
N       -2.13290000      -1.00880000      -1.17310000
C       -1.86880000      -0.25850000       2.38510000
N       -1.71670000       0.04890000       3.49270000
H        0.02180000       1.40210000       1.13400000
H       -0.14960000       0.90050000      -1.12960000
H        0.61640000      -0.62990000      -0.72900000
H       -4.04840000      -1.53070000       1.31380000
H       -4.04750000      -1.95560000      -1.19520000
