21
Properties=species:S:1:pos:R:3 gdb_84039=T pbc="F F F"
O       -0.09400000       1.45860000       0.06100000
C       -0.00570000       0.06310000      -0.01110000
C       -1.30230000      -0.69350000       0.01670000
C       -2.64360000       0.01970000       0.08380000
C       -3.64580000      -0.47560000      -0.97290000
C       -3.37000000       0.02720000      -2.39570000
O       -2.18240000      -0.45140000      -3.00060000
C       -0.98380000       0.09020000      -2.46600000
C       -0.47410000      -0.66730000      -1.25770000
H        0.64670000       1.83150000      -0.42820000
H        0.84070000      -0.35890000       0.53050000
H       -1.27490000      -1.63650000       0.55620000
H       -3.06480000      -0.12840000       1.08510000
H       -2.49700000       1.09940000      -0.02340000
H       -3.67660000      -1.57240000      -0.97960000
H       -4.65430000      -0.13340000      -0.70390000
H       -4.18070000      -0.29660000      -3.05750000
H       -3.36710000       1.13160000      -2.39330000
H       -0.24520000       0.03270000      -3.27370000
H       -1.12330000       1.15260000      -2.22020000
H        0.05410000      -1.58640000      -1.49620000
