20
Properties=species:S:1:pos:R:3 gdb_101759=T pbc="F F F"
C        0.10250000       1.39270000      -0.25400000
C       -0.00670000      -0.07970000       0.04790000
N       -0.08530000      -0.66130000       1.17210000
O       -0.01650000      -0.79070000      -1.10320000
C       -0.09070000      -2.22060000      -0.98490000
C       -0.04780000      -2.75900000      -2.40550000
O        1.14510000      -2.34660000      -3.06710000
C       -0.04070000      -4.28390000      -2.45900000
O        0.03360000      -4.74160000      -3.79240000
H        1.03200000       1.60050000      -0.79320000
H       -0.72360000       1.70860000      -0.89820000
H        0.08550000       1.98150000       0.66420000
H       -0.06650000       0.01720000       1.92970000
H        0.75780000      -2.57950000      -0.39400000
H       -1.01320000      -2.50140000      -0.46650000
H       -0.92870000      -2.39230000      -2.95580000
H        1.18710000      -1.38700000      -2.99740000
H        0.80320000      -4.65730000      -1.85580000
H       -0.96610000      -4.68190000      -2.03000000
H        0.74790000      -4.23750000      -4.20090000
