18
Properties=species:S:1:pos:R:3 gdb_83074=T pbc="F F F"
C       -0.17190000       1.54810000       0.00180000
C        0.02110000       0.05320000       0.07430000
N        1.25760000      -0.64440000      -0.25910000
C        2.48980000       0.18370000      -0.27860000
C        2.72210000       0.63730000       1.14540000
C        1.77500000       0.15940000       1.95210000
C        0.80080000      -0.64800000       1.17220000
C        0.25320000      -1.91490000       1.72310000
O        0.29210000      -2.21910000       2.88990000
H        0.61010000       2.10320000       0.52190000
H       -0.18930000       1.87110000      -1.04550000
H       -1.13570000       1.81670000       0.44500000
H       -0.84150000      -0.50230000      -0.29570000
H        3.31780000      -0.42970000      -0.65520000
H        2.37420000       1.02150000      -0.97900000
H        3.54820000       1.27630000       1.43510000
H        1.69570000       0.28930000       3.02240000
H       -0.22430000      -2.56750000       0.95840000
