17
Properties=species:S:1:pos:R:3 gdb_16816=T pbc="F F F"
C       -0.17280000       1.59950000       0.04200000
C        0.05980000       0.08920000       0.00310000
N        0.91240000      -0.32960000      -1.10460000
C        1.82620000      -1.31740000      -0.80790000
O        2.45480000      -1.96800000      -1.61320000
C        1.88090000      -1.40690000       0.69550000
C        2.24290000      -0.10880000       1.39040000
C        0.80060000      -0.48390000       1.21510000
H        0.77230000       2.14020000       0.14070000
H       -0.67100000       1.94350000      -0.87060000
H       -0.81380000       1.86150000       0.88960000
H       -0.91950000      -0.40980000      -0.06730000
H        0.67610000      -0.14720000      -2.06730000
H        2.14240000      -2.35830000       1.13830000
H        2.65560000      -0.19290000       2.38950000
H        2.66730000       0.69080000       0.79270000
H        0.21220000      -0.73410000       2.08910000
