17
Properties=species:S:1:pos:R:3 gdb_85636=T pbc="F F F"
O       -0.16890000       1.31150000       0.82610000
C        0.01640000       0.09490000       0.12190000
C        0.81790000      -0.85940000       1.02550000
C       -0.22750000      -1.81740000       1.57620000
C       -1.40440000      -1.67950000       0.94750000
C       -1.36840000      -0.61090000      -0.11090000
O       -2.45860000       0.30180000      -0.05330000
C        0.07890000      -2.74140000       2.60340000
C        0.38720000      -3.50890000       3.47990000
H       -0.81110000       1.82080000       0.31650000
H        0.52940000       0.28090000      -0.83110000
H        1.57940000      -1.40830000       0.45990000
H        1.33530000      -0.30460000       1.81330000
H       -2.29340000      -2.26520000       1.14900000
H       -1.42100000      -1.04190000      -1.11820000
H       -2.52030000       0.59000000       0.86570000
H        0.64370000      -4.19040000       4.25270000
