19
Properties=species:S:1:pos:R:3 gdb_64171=T pbc="F F F"
C       -0.18790000       1.52060000       0.18780000
C       -0.00260000       0.01950000       0.00720000
C       -1.27180000      -0.66310000      -0.47470000
O        1.10550000      -0.26010000      -0.89700000
C        1.93620000      -0.76540000       0.15570000
C        0.78280000      -0.66970000       1.19340000
O        1.01110000       0.21060000       2.27900000
C        0.27130000      -1.94780000       1.66370000
C       -0.11230000      -3.00040000       2.10160000
H        0.73320000       1.99800000       0.52490000
H       -0.48020000       1.95810000      -0.77190000
H       -0.97020000       1.73250000       0.92220000
H       -1.58500000      -0.22100000      -1.42580000
H       -1.11030000      -1.73200000      -0.62680000
H       -2.08160000      -0.53220000       0.25000000
H        2.32170000      -1.76760000      -0.05950000
H        2.76350000      -0.08990000       0.40790000
H        1.18550000      -0.32080000       3.06210000
H       -0.46250000      -3.93090000       2.47620000
