18
Properties=species:S:1:pos:R:3 gdb_55775=T pbc="F F F"
O        0.01900000       0.34360000       1.13400000
C       -0.01740000       1.30430000       0.19130000
O        0.96230000       1.62100000      -0.42580000
C       -1.38290000       1.98350000       0.02440000
C       -2.54060000       1.02020000      -0.09690000
C       -3.38590000       0.77560000      -1.31080000
C       -4.04710000       1.23770000      -0.03040000
C       -4.11950000       0.08620000       0.96890000
N       -2.63480000      -0.11230000       0.85950000
H       -2.38490000      -1.00160000       0.43000000
H       -0.89210000       0.17610000       1.46500000
H       -1.52440000       2.61150000       0.91480000
H       -1.32200000       2.64240000      -0.84220000
H       -3.32020000       1.53280000      -2.08580000
H       -3.54180000      -0.23570000      -1.68200000
H       -4.59600000       2.16810000       0.03400000
H       -4.39670000       0.39030000       1.98190000
H       -4.72120000      -0.78280000       0.67930000
