17
Properties=species:S:1:pos:R:3 gdb_47551=T pbc="F F F"
O       -0.00470000      -0.03290000       0.55220000
C       -0.05390000       1.06690000       0.07350000
C       -1.37150000       1.82910000      -0.06080000
C       -1.70320000       2.33120000      -1.45260000
O       -2.16120000       3.68740000      -1.55000000
C       -0.87030000       3.36850000      -2.06700000
C        0.35390000       3.85420000      -1.31690000
C        1.38190000       2.73290000      -1.17880000
O        1.11910000       1.68370000      -0.23160000
H       -2.14620000       1.15480000       0.30700000
H       -1.33370000       2.68970000       0.61410000
H       -2.23530000       1.63330000      -2.09710000
H       -0.80270000       3.40090000      -3.15500000
H        0.83230000       4.67710000      -1.85990000
H        0.07000000       4.24590000      -0.33670000
H        1.54820000       2.26150000      -2.15670000
H        2.33900000       3.14290000      -0.84660000
