22
Properties=species:S:1:pos:R:3 gdb_117558=T pbc="F F F"
C       -0.15470000       1.53320000       0.10690000
C       -0.00960000       0.01260000       0.00380000
C        0.70610000      -0.59380000       1.21450000
C        0.86670000      -2.13040000       1.15300000
C        1.67110000      -2.52660000      -0.01220000
N        2.31670000      -2.82770000      -0.92270000
C        1.47460000      -2.69970000       2.42910000
C        0.58390000      -3.00480000       3.60600000
C        1.22130000      -4.12900000       2.82630000
H        0.82440000       2.02040000       0.17010000
H       -0.67260000       1.94090000      -0.76630000
H       -0.72540000       1.81990000       0.99730000
H       -1.00270000      -0.44560000      -0.09620000
H        0.53960000      -0.24440000      -0.90970000
H        1.69880000      -0.14020000       1.32630000
H        0.15190000      -0.36400000       2.13210000
H       -0.12820000      -2.57680000       1.01680000
H        2.46010000      -2.30250000       2.65480000
H        0.95610000      -2.78610000       4.60030000
H       -0.48430000      -2.85050000       3.49000000
H        0.58220000      -4.72720000       2.18520000
H        2.03190000      -4.68380000       3.28420000
