18
Properties=species:S:1:pos:R:3 gdb_55030=T pbc="F F F"
N        0.54770000       0.15530000      -0.89090000
C       -0.27770000       0.28370000       0.18890000
O       -0.21780000       1.23920000       0.94330000
C       -1.32930000      -0.77420000       0.40930000
C       -1.95640000      -1.60330000      -0.69470000
C       -1.12450000      -2.28590000       0.34750000
C        0.17290000      -2.95360000       0.01120000
C        0.24100000      -4.00260000      -1.01940000
O        0.76040000      -2.69320000      -1.26980000
H        1.29840000       0.82500000      -0.94520000
H        0.65760000      -0.71900000      -1.38160000
H       -1.99390000      -0.44680000       1.19990000
H       -3.03220000      -1.73580000      -0.68290000
H       -1.52330000      -1.50960000      -1.68440000
H       -1.66090000      -2.82570000       1.12470000
H        0.90370000      -2.99540000       0.81940000
H        0.99220000      -4.78680000      -0.95100000
H       -0.66020000      -4.25530000      -1.57440000
