19
Properties=species:S:1:pos:R:3 gdb_40445=T pbc="F F F"
C        0.52420000       1.42960000       0.11950000
O        1.19880000       0.22610000      -0.26320000
C       -0.20110000       0.15840000       0.00110000
C       -0.60330000      -0.64150000       1.19460000
C        0.34470000      -0.93730000       2.32610000
C       -0.18610000      -2.06430000       1.45110000
C       -1.44680000      -2.77970000       1.90470000
C       -2.40230000      -1.61440000       2.24960000
O       -1.97120000      -0.48510000       1.48670000
H        0.77410000       1.80600000       1.10950000
H        0.43260000       2.17950000      -0.66420000
H       -0.82810000       0.00160000      -0.87760000
H        1.38120000      -0.66270000       2.16640000
H       -0.00630000      -0.83930000       3.34820000
H        0.50640000      -2.57390000       0.79190000
H       -1.84150000      -3.38130000       1.07910000
H       -1.29940000      -3.44400000       2.76180000
H       -3.44670000      -1.81300000       1.99420000
H       -2.35680000      -1.37910000       3.32160000
