14
Properties=species:S:1:pos:R:3 gdb_26837=T pbc="F F F"
N        0.12500000       1.36400000       0.10260000
C       -0.00970000       0.00750000       0.02970000
C       -1.12050000      -0.81060000      -0.00050000
N       -2.45530000      -0.35840000      -0.04950000
N       -0.69140000      -2.11040000      -0.00810000
C        0.61300000      -2.05410000       0.01590000
O        1.09080000      -0.75920000       0.05460000
C        1.54500000      -3.16590000      -0.00310000
O        2.75300000      -3.06780000       0.02270000
H        0.97740000       1.73900000      -0.28890000
H       -0.71040000       1.85460000      -0.18650000
H       -2.89260000      -0.37490000       0.86820000
H       -3.00990000      -0.95900000      -0.65100000
H        1.01740000      -4.14030000      -0.04320000
