20
Properties=species:S:1:pos:R:3 gdb_14741=T pbc="F F F"
C        0.00930000       1.52850000       0.01020000
C       -0.01680000      -0.00180000       0.00220000
C       -1.43370000      -0.55820000       0.01250000
O       -1.36580000      -1.96930000       0.00420000
C       -2.64530000      -2.57350000       0.01300000
C       -2.51910000      -4.02450000       0.00370000
C       -2.43760000      -5.22490000      -0.00360000
C       -2.33240000      -6.67640000      -0.01140000
H        1.03660000       1.90400000       0.00250000
H       -0.50130000       1.94170000      -0.86690000
H       -0.48460000       1.93210000       0.90100000
H        0.50090000      -0.38780000      -0.88330000
H        0.51740000      -0.39720000       0.87350000
H       -1.97850000      -0.20470000       0.90620000
H       -1.99520000      -0.19510000      -0.86700000
H       -3.21340000      -2.25200000       0.90410000
H       -3.23010000      -2.24230000      -0.86360000
H       -3.32370000      -7.14290000      -0.00420000
H       -1.80530000      -7.03330000      -0.90300000
H       -1.78840000      -7.04180000       0.86650000
