23
Properties=species:S:1:pos:R:3 gdb_96333=T pbc="F F F"
C        0.02900000       1.58310000       0.01810000
C       -0.01640000       0.04810000       0.00110000
C        0.67960000      -0.49430000      -1.26520000
C        0.22680000      -1.89350000      -1.71430000
O       -0.07900000      -2.80460000      -0.67300000
C        0.86760000      -2.89920000       0.37240000
C        0.46740000      -1.99790000       1.54960000
O        1.26850000      -2.28650000       2.69220000
C        0.63420000      -0.50210000       1.28510000
H        1.06420000       1.94520000       0.01990000
H       -0.46810000       2.00390000      -0.86200000
H       -0.46380000       1.98630000       0.90870000
H       -1.07060000      -0.26090000      -0.02060000
H        0.50030000       0.18150000      -2.11050000
H        1.76450000      -0.47810000      -1.10020000
H       -0.70400000      -1.81530000      -2.28630000
H        0.98790000      -2.32360000      -2.38610000
H        0.86450000      -3.94420000       0.71130000
H        1.88930000      -2.67080000       0.03630000
H       -0.59540000      -2.20600000       1.75410000
H        1.08650000      -3.19200000       2.96370000
H        1.71120000      -0.28440000       1.26080000
H        0.23560000       0.02930000       2.15660000
