17
Properties=species:S:1:pos:R:3 gdb_16679=T pbc="F F F"
C       -0.17680000       1.52370000       0.01240000
C        0.02030000       0.01510000       0.03040000
C        1.16110000      -0.61500000      -0.81550000
C        2.15560000      -0.23550000       0.30140000
C        0.91030000      -0.60470000       1.18380000
C        0.78100000      -2.05790000       0.80680000
N        0.56040000      -3.06570000       1.52800000
O        0.95730000      -2.03940000      -0.56610000
H        0.74750000       2.08510000       0.16900000
H       -0.60040000       1.84130000      -0.94650000
H       -0.88060000       1.82060000       0.79660000
H       -0.94160000      -0.48680000      -0.11370000
H        1.31650000      -0.45240000      -1.88050000
H        3.04960000      -0.85480000       0.39690000
H        2.41440000       0.82150000       0.33470000
H        0.80820000      -0.35030000       2.23520000
H        0.52380000      -3.91300000       0.95760000
