14
Properties=species:S:1:pos:R:3 gdb_12059=T pbc="F F F"
O       -0.07370000       1.45350000      -0.04180000
C       -0.04990000       0.07220000       0.02340000
C        0.24510000      -0.61550000       1.43200000
C       -1.08940000      -1.34890000       1.29520000
O       -2.09570000      -0.33900000       1.22470000
C       -1.41050000      -0.67550000       0.02270000
C        0.88350000      -0.49650000      -1.01890000
O        1.50470000       0.21620000      -1.77050000
H        0.54840000       1.69810000      -0.74670000
H        1.13150000      -1.25510000       1.43620000
H        0.28960000       0.10170000       2.25250000
H       -1.37770000      -2.32780000       1.65670000
H       -2.01520000      -0.97540000      -0.82590000
H        0.97390000      -1.60080000      -1.05260000
