19
Properties=species:S:1:pos:R:3 gdb_95924=T pbc="F F F"
C        0.21060000       1.59510000      -0.29020000
C       -0.04560000       0.13360000       0.05450000
O        0.40230000      -0.68680000      -1.02860000
C        1.42490000      -1.54080000      -0.55670000
O        1.90370000      -0.98820000       0.64290000
C        0.74940000      -0.43060000       1.28410000
C        1.22750000       0.58950000       2.31510000
C       -0.03560000      -1.49000000       1.94220000
C       -0.67590000      -2.35260000       2.48140000
H        1.28020000       1.79080000      -0.40520000
H       -0.27900000       1.82450000      -1.24050000
H       -0.19580000       2.26480000       0.47400000
H       -1.11790000      -0.03530000       0.20200000
H        1.02200000      -2.55300000      -0.38830000
H        2.24880000      -1.57400000      -1.27680000
H        1.86360000       1.33940000       1.84210000
H        0.37510000       1.08320000       2.78850000
H        1.80310000       0.07940000       3.09050000
H       -1.24030000      -3.11550000       2.95880000
