16
Properties=species:S:1:pos:R:3 gdb_3476=T pbc="F F F"
C       -0.04160000       1.53080000      -0.01600000
C       -0.03060000       0.04330000      -0.02950000
C        0.00580000      -1.02430000      -1.08580000
C        1.25940000      -1.58450000      -0.44220000
N        0.89010000      -0.86610000       0.84140000
C       -0.36630000      -1.61190000       1.24800000
C       -1.06730000      -1.04230000       0.02990000
H        0.93490000       1.93900000      -0.29900000
H       -0.78540000       1.91020000      -0.72490000
H       -0.29240000       1.91840000       0.97760000
H       -0.27320000      -0.94350000      -2.12970000
H        1.38450000      -2.66860000      -0.33610000
H        2.17610000      -1.14950000      -0.84960000
H       -0.23790000      -2.69590000       1.35070000
H       -0.74470000      -1.19860000       2.18700000
H       -2.12250000      -0.97460000      -0.20710000
