20
Properties=species:S:1:pos:R:3 gdb_19075=T pbc="F F F"
C        0.08070000       1.54230000      -0.00320000
C        0.06820000       0.02580000      -0.00840000
C        1.39830000      -0.63930000      -0.25590000
C        0.78700000      -0.63910000       1.13800000
C        0.78940000      -2.19240000       1.14260000
C        0.09170000      -2.89690000       0.00250000
C       -1.29540000      -2.68410000      -0.60570000
C        1.40310000      -2.19270000      -0.25680000
H        1.01980000       1.92790000       0.40840000
H       -0.02710000       1.94160000      -1.01750000
H       -0.73830000       1.94190000       0.60470000
H       -0.84290000      -0.39600000      -0.40790000
H        2.24990000      -0.06990000      -0.60780000
H        1.10510000      -0.06930000       2.00260000
H        1.12670000      -2.74160000       2.01380000
H        0.31010000      -3.96070000       0.09850000
H       -1.25530000      -2.14380000      -1.55560000
H       -1.75920000      -3.65450000      -0.80870000
H       -1.96680000      -2.14320000       0.06700000
H        2.27230000      -2.74210000      -0.59870000
