18
Properties=species:S:1:pos:R:3 gdb_17843=T pbc="F F F"
C       -0.11770000       1.54800000       0.23960000
C        0.05900000       0.05340000      -0.05870000
O        1.00890000      -0.52610000       0.82300000
C       -1.29630000      -0.65090000      -0.05740000
C       -1.60320000      -2.13870000      -0.01850000
C       -0.74310000      -2.86700000       1.00990000
O       -1.06430000      -1.87510000       2.03660000
C       -1.98840000      -1.23200000       1.13550000
H        0.85870000       2.03910000       0.24540000
H       -0.74890000       2.03640000      -0.51110000
H       -0.58180000       1.69240000       1.22170000
H        0.49310000      -0.05120000      -1.06280000
H        0.53680000      -0.75180000       1.63660000
H       -2.01220000      -0.14540000      -0.70570000
H       -2.22480000      -2.62120000      -0.76080000
H       -1.15770000      -3.83840000       1.29900000
H        0.33100000      -2.93990000       0.82980000
H       -2.94090000      -0.92060000       1.54980000
