23
Properties=species:S:1:pos:R:3 gdb_106831=T pbc="F F F"
C       -0.50080000       1.34450000      -0.33410000
C        0.13050000       0.00440000       0.07090000
C        1.03060000      -0.54890000      -0.99090000
C        2.42460000      -0.05390000      -1.42240000
C        2.73920000      -1.50810000      -1.91520000
C        1.32770000      -1.92200000      -1.45620000
C        0.84020000      -3.27600000      -1.04080000
C        0.70760000      -4.24200000      -2.22730000
O        0.41570000      -1.07490000      -2.18460000
H        0.26530000       2.10430000      -0.52070000
H       -1.08970000       1.22970000      -1.24860000
H       -1.16010000       1.72060000       0.45370000
H        0.70800000       0.12750000       0.99590000
H       -0.65760000      -0.72750000       0.28060000
H        2.42290000       0.73180000      -2.18170000
H        3.05490000       0.25170000      -0.58290000
H        2.93450000      -1.63280000      -2.98300000
H        3.53850000      -1.98370000      -1.34050000
H        1.53390000      -3.68960000      -0.29770000
H       -0.13040000      -3.16370000      -0.54490000
H        0.00790000      -3.84480000      -2.96820000
H        1.67140000      -4.39600000      -2.72370000
H        0.34100000      -5.21860000      -1.89790000
