17
Properties=species:S:1:pos:R:3 gdb_69276=T pbc="F F F"
C        0.06570000       1.49900000      -0.08610000
C       -0.06080000       0.00280000       0.07070000
C       -1.29080000      -0.65280000      -0.55660000
O       -1.84130000      -1.71310000       0.20050000
C       -0.88870000      -2.66840000       0.64330000
C        0.03900000      -2.01240000       1.66330000
O        0.29200000      -2.48160000       2.74660000
C        0.59240000      -0.69330000       1.20630000
O        1.14770000      -0.73610000      -0.12360000
H        1.02160000       1.84400000       0.31440000
H        0.01830000       1.77800000      -1.14460000
H       -0.74630000       2.01440000       0.43620000
H       -2.09410000       0.08220000      -0.65890000
H       -1.00830000      -0.99700000      -1.56530000
H       -1.43860000      -3.47620000       1.12860000
H       -0.30170000      -3.07570000      -0.19470000
H        1.16890000      -0.13750000       1.94350000
