17
Properties=species:S:1:pos:R:3 gdb_47424=T pbc="F F F"
N        0.05410000       1.19990000       0.32870000
C        0.03010000      -0.03300000       0.08230000
O        1.10530000      -0.83700000      -0.17160000
C        0.61490000      -2.12690000      -0.52780000
O       -0.68690000      -2.22690000      -0.01520000
C       -1.21700000      -0.90240000       0.01400000
C       -2.15350000      -0.72130000       1.18950000
C       -3.06040000      -1.81890000       1.59380000
N       -1.91140000      -1.43990000       2.44230000
H        1.00550000       1.56830000       0.30620000
H        0.62500000      -2.21950000      -1.62510000
H        1.24700000      -2.89280000      -0.07160000
H       -1.75320000      -0.68220000      -0.92330000
H       -2.46040000       0.31420000       1.30850000
H       -4.03650000      -1.58990000       2.01130000
H       -3.00140000      -2.75180000       1.04070000
H       -1.16480000      -2.11460000       2.28660000
