17
Properties=species:S:1:pos:R:3 gdb_29757=T pbc="F F F"
C       -0.14910000       1.43480000       0.09370000
C        0.07780000      -0.06040000       0.11480000
C        1.45420000      -0.56650000      -0.24540000
C        0.97700000      -0.63890000       1.20680000
C        1.01300000      -2.14440000       1.03580000
C        0.56740000      -3.43290000       1.18180000
N        0.77890000      -4.10960000      -0.00880000
C        1.25770000      -3.23820000      -0.87700000
N        1.47940000      -2.04240000      -0.25720000
H        0.74850000       1.97940000       0.40560000
H       -0.41700000       1.77650000      -0.91130000
H       -0.96070000       1.71400000       0.77290000
H       -0.76780000      -0.66730000      -0.19940000
H        2.24170000       0.02070000      -0.69800000
H        1.32000000      -0.05540000       2.04980000
H        0.15310000      -3.93570000       2.04110000
H        1.53150000      -3.45270000      -1.89850000
