22
Properties=species:S:1:pos:R:3 gdb_14740=T pbc="F F F"
C       -0.03400000       1.60330000      -0.01430000
C       -0.00170000       0.07250000      -0.00370000
C        0.72570000      -0.50710000       1.21440000
C        0.76090000      -2.03780000       1.22950000
C        1.49580000      -2.60510000       2.46120000
C        1.53600000      -4.06350000       2.48800000
C        1.55380000      -5.26770000       2.48320000
C        1.58350000      -6.72370000       2.48910000
H        0.97910000       2.02070000      -0.02320000
H       -0.55920000       1.98670000      -0.89470000
H       -0.54310000       1.99470000       0.87360000
H       -1.02830000      -0.31640000      -0.03020000
H        0.48240000      -0.29070000      -0.92000000
H        1.75350000      -0.11780000       1.24170000
H        0.24180000      -0.14370000       2.13220000
H       -0.26100000      -2.43580000       1.21170000
H        1.25080000      -2.40990000       0.32150000
H        2.51990000      -2.20740000       2.48500000
H        1.01020000      -2.23290000       3.37390000
H        2.11410000      -7.10840000       3.36750000
H        0.57190000      -7.14480000       2.50530000
H        2.08990000      -7.11750000       1.60040000
