20
Properties=species:S:1:pos:R:3 gdb_70542=T pbc="F F F"
C       -0.00980000       1.50310000       0.02200000
C       -0.02860000      -0.01210000       0.02930000
C       -0.87540000      -0.72850000       1.05250000
C        0.63020000      -0.74570000       1.17570000
C        1.43150000      -1.98000000       0.78290000
N        2.18820000      -1.71970000      -0.43730000
C        1.63840000      -1.13670000      -1.54540000
O        2.23910000      -1.01790000      -2.59690000
C        0.19670000      -0.66910000      -1.33650000
H        0.92270000       1.88410000      -0.40990000
H       -0.83910000       1.90460000      -0.57180000
H       -0.09910000       1.90630000       1.03560000
H       -1.43500000      -0.12860000       1.76260000
H       -1.37230000      -1.64990000       0.76170000
H        1.07180000      -0.13680000       1.95820000
H        2.14020000      -2.24890000       1.57050000
H        0.76390000      -2.84470000       0.65340000
H        3.10150000      -2.12780000      -0.56400000
H       -0.44790000      -1.55010000      -1.45090000
H       -0.04530000       0.00860000      -2.15710000
