13
Properties=species:S:1:pos:R:3 gdb_15447=T pbc="F F F"
O       -0.01010000      -0.01110000       0.16650000
C       -0.06280000       1.18660000       0.08600000
C       -1.25110000       2.05320000      -0.03600000
C       -0.90170000       3.34400000      -0.04790000
C        0.58260000       3.57350000       0.07230000
C        1.18200000       2.14430000       0.05800000
C        2.11680000       1.87350000       1.13900000
N        2.85230000       1.67870000       2.00890000
H       -2.25150000       1.64540000      -0.09270000
H       -1.59360000       4.17560000      -0.12420000
H        0.96660000       4.19090000      -0.74650000
H        0.82100000       4.10520000       0.99990000
H        1.69210000       1.94930000      -0.89240000
