17
Properties=species:S:1:pos:R:3 gdb_108799=T pbc="F F F"
C       -0.02280000       1.52360000      -0.09230000
C        0.05710000      -0.00410000      -0.09500000
N        0.86050000      -0.53420000      -1.20400000
C        1.78250000      -1.25390000      -0.68680000
C        2.80730000      -1.96420000      -1.52440000
O        2.61140000      -1.70750000      -2.88520000
N        1.76310000      -1.33310000       0.69970000
C        0.71110000      -0.55580000       1.18570000
O        0.42350000      -0.37710000       2.34130000
H        0.97830000       1.96310000      -0.06060000
H       -0.52480000       1.87610000      -0.99610000
H       -0.57930000       1.86060000       0.78590000
H       -0.95770000      -0.41740000      -0.16210000
H        3.81230000      -1.64120000      -1.20500000
H        2.74670000      -3.04530000      -1.31430000
H        1.83300000      -1.13030000      -2.93600000
H        2.42070000      -1.82030000       1.28740000
