16
Properties=species:S:1:pos:R:3 gdb_18245=T pbc="F F F"
O        0.01960000       1.41290000       0.02560000
C       -0.00320000      -0.00150000      -0.01760000
C       -1.41640000      -0.48110000       0.01780000
C       -2.53340000       0.25130000      -0.03590000
C       -3.78570000      -0.60020000       0.02580000
C       -3.23540000      -2.02170000       0.05480000
O       -2.48150000      -2.39050000      -1.10260000
C       -1.76560000      -1.93660000       0.07010000
H        0.93090000       1.70090000      -0.07640000
H        0.48580000      -0.38490000      -0.93060000
H        0.55070000      -0.43950000       0.83280000
H       -2.55420000       1.32770000      -0.14710000
H       -4.38190000      -0.39070000       0.92370000
H       -4.44340000      -0.43850000      -0.83700000
H       -3.79170000      -2.82880000       0.52400000
H       -1.11420000      -2.67750000       0.52640000
