17
Properties=species:S:1:pos:R:3 gdb_20865=T pbc="F F F"
C       -0.13300000       1.57210000       0.06370000
C       -0.06380000       0.04480000       0.01420000
C        0.82650000      -0.53900000       1.12930000
C        0.89200000      -2.02820000       1.11180000
C        1.88710000      -2.92580000       0.86740000
C        1.24410000      -4.18420000       1.00300000
N       -0.02530000      -4.06470000       1.30140000
O       -0.25210000      -2.69040000       1.37200000
H        0.86000000       2.02040000      -0.05370000
H       -0.77100000       1.96320000      -0.73430000
H       -0.54240000       1.91980000       1.01850000
H       -1.06850000      -0.38120000       0.10640000
H        0.32310000      -0.28270000      -0.95800000
H        1.84590000      -0.14950000       1.03860000
H        0.44570000      -0.20850000       2.10420000
H        2.91750000      -2.72090000       0.63040000
H        1.66400000      -5.17450000       0.89410000
