15
Properties=species:S:1:pos:R:3 gdb_108747=T pbc="F F F"
O       -0.00340000       1.42010000       0.00810000
C       -0.01950000       0.00740000       0.00230000
C       -1.43180000      -0.45940000       0.01200000
C       -2.57320000       0.24020000       0.02350000
C       -3.72100000      -0.69300000       0.02980000
N       -4.94430000      -0.34270000       0.04110000
N       -3.15740000      -1.97440000       0.02120000
C       -1.76690000      -1.92140000       0.00930000
O       -1.01020000      -2.86490000       0.00090000
H        0.91290000       1.71070000       0.00190000
H        0.48580000      -0.41150000      -0.88390000
H        0.50030000      -0.41900000       0.87640000
H       -2.69830000       1.31190000       0.02830000
H       -5.56980000      -1.15100000       0.04370000
H       -3.67200000      -2.83960000       0.02310000
