20
Properties=species:S:1:pos:R:3 gdb_22094=T pbc="F F F"
C       -0.97520000       1.34370000       0.88070000
C       -0.12880000       0.29850000       0.14290000
C        0.89430000      -0.34150000       1.09070000
C       -0.98030000      -0.80590000      -0.52790000
C       -1.88090000      -0.31940000      -1.64310000
N       -1.39440000      -0.37100000      -2.83430000
O       -2.26990000       0.11570000      -3.79590000
C       -3.19100000       0.15550000      -1.34280000
C       -4.29930000       0.52520000      -1.05070000
H       -0.33380000       2.10700000       1.33350000
H       -1.67900000       1.84830000       0.21410000
H       -1.55650000       0.87820000       1.68580000
H        0.42080000       0.80570000      -0.66130000
H        0.39330000      -0.87890000       1.90500000
H        1.53710000      -1.05560000       0.56550000
H        1.53730000       0.41980000       1.54420000
H       -0.30710000      -1.55230000      -0.95980000
H       -1.59180000      -1.30850000       0.23100000
H       -1.77080000      -0.01040000      -4.61060000
H       -5.27720000       0.86050000      -0.80660000
