12
Properties=species:S:1:pos:R:3 gdb_23814=T pbc="F F F"
F        0.01380000       0.04050000       0.15470000
C        0.01060000       1.36220000       0.05090000
C       -1.16160000       2.03120000       0.00390000
N       -1.16470000       3.39810000      -0.10350000
N       -0.05480000       4.14400000      -0.16720000
C        1.07860000       3.51390000      -0.12310000
C        1.28080000       2.06370000      -0.01010000
N        2.40450000       1.43730000       0.03380000
H       -2.12280000       1.53630000       0.04730000
H       -2.02550000       3.91660000      -0.14010000
H        1.96070000       4.14720000      -0.17690000
H        3.17810000       2.10350000      -0.02210000
