18
Properties=species:S:1:pos:R:3 gdb_6532=T pbc="F F F"
C       -0.03230000       1.52960000       0.00450000
C        0.00690000       0.01940000       0.02950000
O       -1.15620000      -0.60030000      -0.46860000
C        1.32350000      -0.71340000      -0.17610000
C        0.63320000      -0.69630000       1.18300000
O        1.17810000       0.10980000       2.18810000
C        0.03080000      -1.96660000       1.72840000
O        1.07810000      -2.61140000       2.46030000
H        0.84080000       1.95220000       0.50420000
H       -0.05370000       1.89530000      -1.02940000
H       -0.93110000       1.89150000       0.51330000
H       -1.17550000      -0.45770000      -1.42160000
H        1.30090000      -1.63780000      -0.74330000
H        2.22480000      -0.11870000      -0.27660000
H        1.71140000      -0.49000000       2.72630000
H       -0.80750000      -1.71400000       2.39310000
H       -0.34830000      -2.59830000       0.91830000
H        0.68040000      -3.25600000       3.05160000
