16
Properties=species:S:1:pos:R:3 gdb_35586=T pbc="F F F"
N       -0.07730000      -1.14480000       0.10270000
C       -0.02680000       0.00780000       0.03500000
C        0.04530000       1.46650000      -0.07530000
O       -0.34680000       2.15090000       1.12860000
C        0.84000000       2.99250000       1.08210000
C        1.80240000       2.81400000       2.26700000
O        2.98530000       2.25220000       1.71530000
C        2.60280000       1.40980000       0.63660000
C        1.44210000       2.14590000      -0.06020000
H       -0.57140000       1.77950000      -0.92730000
H        0.57200000       4.03110000       0.87070000
H        2.07840000       3.75240000       2.75420000
H        1.33440000       2.14530000       3.00470000
H        3.47630000       1.27430000      -0.00430000
H        2.28100000       0.42280000       1.00090000
H        1.73070000       2.64470000      -0.98360000
