14
Properties=species:S:1:pos:R:3 gdb_2838=T pbc="F F F"
C       -0.40740000       1.01400000      -0.04240000
O        0.59330000       0.01880000       0.12540000
C        0.97830000      -0.57750000      -1.05430000
C        1.56390000      -1.93750000      -0.95030000
C        0.18330000      -1.77810000      -1.59050000
C       -0.97690000      -2.22840000      -0.88070000
N       -1.92580000      -2.58510000      -0.32220000
H       -0.05970000       1.81770000      -0.70730000
H       -1.33290000       0.58690000      -0.44710000
H       -0.60500000       1.42880000       0.94740000
H        1.36020000       0.10180000      -1.81830000
H        2.38350000      -2.21470000      -1.60210000
H        1.58440000      -2.37400000       0.04100000
H        0.11970000      -1.88680000      -2.66810000
