18
Properties=species:S:1:pos:R:3 gdb_84533=T pbc="F F F"
C       -0.14530000       1.39110000      -0.07110000
C        0.00530000      -0.11800000       0.17010000
C        0.68210000      -0.84030000      -0.97960000
C        1.83840000      -1.40790000      -0.63050000
C        2.11300000      -1.21260000       0.82570000
C        0.93230000      -0.41770000       1.35780000
N        1.15100000      -1.79040000       1.74660000
C        0.34320000      -2.89350000       1.56330000
O        0.69190000      -3.93870000       1.07290000
H        0.83230000       1.85870000      -0.22640000
H       -0.75510000       1.58530000      -0.95850000
H       -0.62730000       1.87820000       0.78310000
H       -0.99400000      -0.54020000       0.34900000
H        0.22900000      -0.89360000      -1.96360000
H        2.49550000      -1.97080000      -1.28070000
H        3.12590000      -1.10690000       1.20160000
H        1.03630000       0.32540000       2.14410000
H       -0.66300000      -2.73220000       2.00080000
