14
Properties=species:S:1:pos:R:3 gdb_2454=T pbc="F F F"
O        0.00970000       0.41910000       0.96350000
C       -0.01360000       1.36790000       0.22710000
C       -1.28780000       2.04670000      -0.31230000
C       -0.80330000       3.33610000      -0.93280000
N       -0.05580000       4.17300000       0.02780000
C        0.68870000       3.35710000      -0.95290000
C        1.22590000       2.08210000      -0.34620000
H       -1.74620000       1.38480000      -1.05800000
H       -2.00830000       2.18510000       0.49800000
H       -1.38270000       3.81850000      -1.71260000
H       -0.07360000       5.14300000      -0.27670000
H        1.23310000       3.85540000      -1.74790000
H        1.96380000       2.24100000       0.44440000
H        1.68250000       1.43310000      -1.10430000
