25
Properties=species:S:1:pos:R:3 gdb_115338=T pbc="F F F"
C       -0.11870000       1.68030000       0.29180000
C        0.02060000       0.16150000       0.13810000
C       -1.31800000      -0.55830000      -0.05240000
C       -2.06180000      -0.21160000      -1.37400000
C       -2.92480000      -1.45350000      -1.71480000
C       -2.68310000      -2.45670000      -0.56270000
O       -2.90270000      -3.81290000      -0.90300000
C       -1.27040000      -2.10460000      -0.03280000
C       -0.15750000      -2.72340000      -0.88820000
H        0.85600000       2.15330000       0.44670000
H       -0.56920000       2.13520000      -0.59650000
H       -0.75170000       1.93400000       1.14980000
H        0.67880000      -0.05590000      -0.71260000
H        0.52320000      -0.24480000       1.02590000
H       -1.97070000      -0.25900000       0.78090000
H       -2.66420000       0.69440000      -1.26910000
H       -1.33900000      -0.01100000      -2.17290000
H       -3.98680000      -1.22350000      -1.83120000
H       -2.60150000      -1.90710000      -2.65980000
H       -3.40120000      -2.26030000       0.24200000
H       -2.38540000      -4.00750000      -1.69150000
H       -1.15310000      -2.47270000       0.99290000
H       -0.18090000      -2.37180000      -1.92640000
H        0.83120000      -2.48510000      -0.48680000
H       -0.25020000      -3.81430000      -0.89820000
