18
Properties=species:S:1:pos:R:3 gdb_77775=T pbc="F F F"
C       -0.22260000       1.49940000      -0.00230000
N        0.04530000       0.07130000       0.09730000
C        1.37400000      -0.48940000      -0.17690000
C        2.60020000       0.41340000      -0.07630000
O        3.38780000       0.64970000      -0.96150000
C        2.64970000       0.90310000       1.33260000
C        1.65480000       0.34830000       2.03710000
C        0.78790000      -0.55530000       1.20020000
C        0.17250000      -1.78050000       1.82940000
H        0.55950000       2.15600000       0.40190000
H       -0.36480000       1.74440000      -1.05880000
H       -1.15830000       1.71220000       0.52410000
H        1.41040000      -1.32150000      -0.87390000
H        3.38080000       1.62440000       1.67520000
H        1.44120000       0.53440000       3.08470000
H       -0.50660000      -1.50020000       2.64300000
H       -0.40280000      -2.33450000       1.08470000
H        0.94220000      -2.43870000       2.24590000
