18
Properties=species:S:1:pos:R:3 gdb_68840=T pbc="F F F"
O       -0.09210000       1.42640000       0.01630000
C        0.00510000       0.04950000      -0.02470000
C       -0.17410000      -0.82400000       1.19840000
C       -1.12920000      -0.97600000       0.04190000
O       -2.49270000      -0.86450000       0.23040000
C       -0.47180000      -1.76910000      -1.07060000
C       -0.53490000      -3.22180000      -1.32000000
N       -1.18530000      -2.25770000      -2.24430000
C        0.67920000      -0.74180000      -1.16050000
H        0.61790000       1.77050000       0.56910000
H        0.53620000      -1.60530000       1.46150000
H       -0.62200000      -0.29950000       2.03760000
H       -2.84180000      -0.26520000      -0.43940000
H        0.31740000      -3.74520000      -1.74470000
H       -1.16560000      -3.82560000      -0.67190000
H       -2.18620000      -2.24030000      -2.05020000
H        0.64890000      -0.20380000      -2.11100000
H        1.69320000      -1.10980000      -0.97210000
