16
Properties=species:S:1:pos:R:3 gdb_53879=T pbc="F F F"
N        0.12950000       0.86050000      -0.39920000
C       -0.16090000      -0.45300000      -0.15580000
N        0.58450000      -1.40460000      -0.56970000
C       -1.43950000      -0.59750000       0.66500000
O       -2.14040000       0.36620000       0.88500000
C       -1.85580000      -1.98330000       1.17410000
N       -2.56110000      -2.73080000       0.14530000
C       -1.99970000      -3.77890000      -0.51380000
O       -0.87110000      -4.18670000      -0.32700000
H        0.82650000       1.05290000      -1.09910000
H       -0.61050000       1.52750000      -0.25580000
H        0.25790000      -2.32840000      -0.29010000
H       -0.99590000      -2.58200000       1.47780000
H       -2.51340000      -1.82150000       2.03180000
H       -3.49160000      -2.43800000      -0.10850000
H       -2.69370000      -4.23290000      -1.24450000
