18
Properties=species:S:1:pos:R:3 gdb_5250=T pbc="F F F"
C       -0.03520000       1.57290000      -0.02400000
C        0.13240000       0.05280000      -0.07280000
C        0.66870000      -0.53280000       1.24550000
C        0.77370000      -2.02580000       1.22470000
C        1.89640000      -2.81100000       1.29450000
N        1.44650000      -4.11310000       1.21980000
C        0.09010000      -4.06070000       1.10990000
N       -0.34860000      -2.82450000       1.10900000
H        0.91870000       2.07400000       0.17740000
H       -0.42070000       1.96210000      -0.97170000
H       -0.73490000       1.86850000       0.76600000
H       -0.82670000      -0.42610000      -0.29810000
H        0.81280000      -0.22240000      -0.88850000
H        1.65230000      -0.10230000       1.47000000
H        0.00040000      -0.23050000       2.06260000
H        2.94320000      -2.57480000       1.38990000
H        2.01450000      -4.94260000       1.24980000
H       -0.51680000      -4.95110000       1.03730000
