21
Properties=species:S:1:pos:R:3 gdb_38602=T pbc="F F F"
C        0.00250000       1.54310000      -0.12210000
C        1.30730000       0.78960000      -0.02800000
C        2.11460000       0.76620000       1.26140000
C        1.42250000       0.00100000       2.38720000
C       -0.10930000       0.19020000       2.64220000
C       -0.08480000      -1.17890000       3.37270000
C        0.75750000      -1.38440000       2.08760000
C       -0.36070000      -0.59960000       1.31680000
C        0.00030000       0.03690000      -0.00090000
H       -0.32330000       2.12240000       0.73610000
H       -0.25720000       1.98350000      -1.07880000
H        1.88930000       0.74370000      -0.94280000
H        3.08300000       0.28620000       1.06980000
H        2.34600000       1.78530000       1.59990000
H        2.03180000       0.01490000       3.29770000
H       -0.61800000       1.09830000       2.97320000
H        0.45260000      -1.21240000       4.32480000
H       -1.03380000      -1.72030000       3.42710000
H        1.26090000      -2.29780000       1.76310000
H       -1.33070000      -1.10640000       1.27620000
H       -0.28030000      -0.53280000      -0.88200000
