20
Properties=species:S:1:pos:R:3 gdb_15337=T pbc="F F F"
C       -0.07990000       1.55670000      -0.34610000
C       -0.05020000       0.13830000       0.23460000
C       -1.40260000      -0.53870000       0.18700000
C       -1.87070000      -1.24440000      -1.05380000
C       -1.53400000      -2.05850000       0.18970000
C       -0.37960000      -2.91080000       0.21520000
C        0.58120000      -3.63840000       0.25030000
C        1.73870000      -4.52090000       0.28910000
H        0.90820000       2.02480000      -0.29690000
H       -0.39690000       1.54700000      -1.39430000
H       -0.77870000       2.19690000       0.20380000
H        0.67750000      -0.47430000      -0.30880000
H        0.30060000       0.17260000       1.27410000
H       -2.17720000      -0.02880000       0.75570000
H       -2.91340000      -1.17730000      -1.34410000
H       -1.17460000      -1.31840000      -1.88240000
H       -2.38950000      -2.44580000       0.73660000
H        1.46130000      -5.52160000       0.63940000
H        2.18980000      -4.63460000      -0.70330000
H        2.51450000      -4.14010000       0.96320000
