19
Properties=species:S:1:pos:R:3 gdb_89747=T pbc="F F F"
C       -0.71280000       1.22120000      -0.04070000
C        0.14510000      -0.03450000      -0.03080000
C        1.52590000      -0.00710000      -0.77520000
C        2.15060000      -0.70020000       0.44210000
C        3.02000000      -1.87300000       0.52990000
O        3.47760000      -0.56280000       0.90690000
C        0.91150000      -0.40640000       1.25330000
C        0.84360000       0.16140000       2.60040000
O        0.43520000      -1.19050000       2.32720000
H       -0.13780000       2.09450000       0.28540000
H       -1.09560000       1.42790000      -1.04560000
H       -1.57500000       1.11540000       0.62650000
H       -0.44110000      -0.89990000      -0.35800000
H        1.58480000      -0.52960000      -1.73160000
H        1.90770000       1.01090000      -0.89710000
H        2.88650000      -2.57260000       1.35290000
H        3.47010000      -2.28020000      -0.37440000
H        1.76090000       0.26240000       3.17730000
H        0.03800000       0.84510000       2.86300000
