17
Properties=species:S:1:pos:R:3 gdb_96985=T pbc="F F F"
C        0.04610000       1.44300000      -0.02130000
N        0.11140000      -0.00820000      -0.01560000
C        0.58680000      -0.59850000       0.98180000
O        1.11070000      -0.00700000       2.11720000
C        1.22100000      -1.05250000       3.08470000
C       -0.19730000      -1.62210000       3.39170000
C        0.05570000      -2.64490000       2.27740000
C        1.51230000      -2.32640000       2.24930000
N        0.69670000      -2.02320000       1.07920000
H        0.74790000       1.83150000      -0.76890000
H       -0.95580000       1.75070000      -0.33940000
H        0.27280000       1.91020000       0.94400000
H        1.86660000      -0.72770000       3.89640000
H       -0.23410000      -2.11440000       4.36700000
H       -1.03320000      -0.92440000       3.29100000
H       -0.45940000      -3.58180000       2.10730000
H        2.40720000      -2.92970000       2.16600000
