18
Properties=species:S:1:pos:R:3 gdb_55793=T pbc="F F F"
C       -0.03980000       1.38410000      -0.00900000
C       -0.03360000      -0.07880000       0.32490000
N        0.82020000      -0.59220000       1.10680000
O       -1.05990000      -0.70980000      -0.33110000
C       -1.16060000      -2.10680000      -0.20570000
C       -1.90200000      -2.76100000       1.00180000
C       -3.23600000      -2.15850000       0.50070000
C       -2.47030000      -2.75000000      -0.70740000
O       -2.12010000      -3.92790000       0.12020000
H        0.76930000       1.88330000       0.52180000
H        0.08020000       1.52630000      -1.08750000
H       -0.99850000       1.83170000       0.27140000
H        0.68650000      -1.59390000       1.23780000
H       -0.24820000      -2.62390000      -0.51390000
H       -1.55700000      -2.95440000       2.01700000
H       -4.12580000      -2.71510000       0.79510000
H       -3.36140000      -1.07620000       0.54490000
H       -2.79960000      -2.92840000      -1.73030000
