19
Properties=species:S:1:pos:R:3 gdb_114598=T pbc="F F F"
C        0.18270000       1.65000000       0.12250000
C       -0.10320000       0.15490000      -0.04610000
C        0.63710000      -0.46540000      -1.22590000
C        2.20440000      -0.61000000      -1.15040000
C        2.03460000      -2.12140000      -1.32420000
O        1.21340000      -2.60080000      -0.27600000
C        0.54630000      -1.99880000      -1.38760000
C       -0.40100000      -2.80290000      -2.19150000
O       -0.51210000      -4.00150000      -2.13660000
H        1.25020000       1.83680000       0.28230000
H       -0.12280000       2.21680000      -0.76410000
H       -0.35700000       2.05960000       0.98150000
H        0.17620000      -0.38810000       0.86350000
H       -1.18180000      -0.00010000      -0.18160000
H        0.35470000       0.02630000      -2.16400000
H        2.72010000      -0.12820000      -1.98340000
H        2.67660000      -0.31700000      -0.20920000
H        2.67300000      -2.84170000      -1.82360000
H       -1.00960000      -2.18910000      -2.89450000
