15
Properties=species:S:1:pos:R:3 gdb_74313=T pbc="F F F"
N        0.00330000       1.35390000       0.13600000
C        0.02090000      -0.01270000       0.02740000
N       -1.01420000      -0.82000000       0.00860000
H       -2.00380000      -0.61300000      -0.00250000
C       -0.60670000      -2.17590000      -0.00620000
C       -1.63410000      -3.14060000      -0.02670000
O       -2.83290000      -2.82990000      -0.03010000
C        0.82300000      -2.18920000      -0.00400000
N        1.66140000      -3.15900000      -0.00870000
N        1.14200000      -0.76610000       0.00310000
H        0.74610000       1.83470000      -0.35250000
H       -0.89710000       1.78120000      -0.02860000
H       -1.30230000      -4.19470000      -0.04150000
H        2.62680000      -2.83770000      -0.00490000
H        2.07270000      -0.40170000       0.12240000
