16
Properties=species:S:1:pos:R:3 gdb_34376=T pbc="F F F"
N       -0.11230000      -1.13730000      -0.31820000
C       -0.06390000       0.00360000      -0.13520000
C       -0.01050000       1.43320000       0.09830000
C       -0.23760000       2.31310000      -1.16790000
O        1.11830000       2.79050000      -1.15990000
C        1.40280000       2.11210000       0.08780000
C        1.37720000       3.01050000       1.29020000
C        0.23840000       2.90350000       1.97400000
C       -0.71830000       1.88450000       1.40170000
H       -0.47350000       1.76590000      -2.08540000
H       -0.96820000       3.11730000      -1.01660000
H        2.29180000       1.48110000      -0.00360000
H        2.19960000       3.67350000       1.53040000
H       -0.00660000       3.46940000       2.86630000
H       -1.70980000       2.30540000       1.19600000
H       -0.87340000       1.04330000       2.08690000
