17
Properties=species:S:1:pos:R:3 gdb_77999=T pbc="F F F"
C       -0.10600000       1.54700000      -0.01720000
C        0.18800000       0.06150000       0.02810000
O        1.37540000      -0.34700000      -0.73600000
C        1.81770000      -1.18130000       0.35630000
C        2.28350000      -2.49480000       0.09280000
C        2.68940000      -3.60830000      -0.11570000
C        2.19970000      -0.26920000       1.48250000
O        2.77860000       0.96870000       1.23460000
C        0.73240000      -0.59910000       1.29020000
H        0.69310000       2.13050000       0.44220000
H       -0.24450000       1.87240000      -1.05340000
H       -1.03600000       1.75070000       0.52450000
H       -0.66420000      -0.50810000      -0.36320000
H        3.04690000      -4.59030000      -0.30440000
H        2.64340000      -0.76260000       2.34210000
H        2.72730000       1.09800000       0.27690000
H        0.14250000      -1.10380000       2.04390000
