16
Properties=species:S:1:pos:R:3 gdb_34473=T pbc="F F F"
C        0.11590000      -1.19830000       0.01100000
C        0.02180000       0.00280000       0.03240000
C       -0.03050000       1.41150000       0.06100000
C       -1.14290000       2.18140000       0.09010000
C       -0.81280000       3.66120000       0.06210000
C        0.70110000       3.68230000       0.38050000
C        1.21890000       2.27340000       0.01070000
C       -2.47680000       1.70150000       0.09540000
N       -3.58140000       1.35050000       0.10340000
H        0.17380000      -2.25880000      -0.00930000
H       -1.03380000       4.07380000      -0.93120000
H       -1.40920000       4.23440000       0.77790000
H        1.22960000       4.47740000      -0.14950000
H        0.84360000       3.85160000       1.45190000
H        1.99610000       1.90700000       0.68730000
H        1.64300000       2.23760000      -1.00160000
