15
Properties=species:S:1:pos:R:3 gdb_57747=T pbc="F F F"
C        0.03210000       1.58090000       0.10660000
C        0.03130000       0.05730000      -0.09470000
O        0.86650000      -0.60850000       0.84360000
C       -1.33330000      -0.47710000      -0.08070000
C       -2.46420000      -0.91150000      -0.02910000
C       -3.72660000      -1.39750000       0.02750000
C       -4.85940000      -1.83360000       0.08430000
C       -6.20620000      -2.33560000       0.11710000
O       -6.69010000      -2.93360000       1.05160000
H        1.06380000       1.94060000       0.08910000
H       -0.53650000       2.08060000      -0.68260000
H       -0.41780000       1.84140000       1.06980000
H        0.47930000      -0.16930000      -1.07010000
H        0.46950000      -0.50840000       1.71660000
H       -6.78680000      -2.12800000      -0.80430000
