19
Properties=species:S:1:pos:R:3 gdb_121204=T pbc="F F F"
O        0.21310000       1.36460000      -0.05260000
C        0.07800000      -0.04350000       0.03080000
C       -1.37510000      -0.50690000      -0.10200000
C       -1.50030000      -2.02040000      -0.06400000
N       -1.16050000      -2.66380000       1.22870000
C       -2.28400000      -3.61390000       1.10590000
C       -2.91940000      -2.68880000       0.02160000
C       -3.98720000      -1.83050000       0.50650000
N       -4.84110000      -1.15060000       0.88820000
H       -0.26680000       1.74990000       0.68770000
H        0.67970000      -0.44550000      -0.79300000
H        0.50440000      -0.43310000       0.96850000
H       -1.96970000      -0.08070000       0.71470000
H       -1.78730000      -0.12520000      -1.04390000
H       -0.96380000      -2.46160000      -0.91890000
H       -0.23930000      -3.08380000       1.28220000
H       -2.02370000      -4.59240000       0.68070000
H       -2.85890000      -3.76300000       2.02350000
H       -3.25030000      -3.18930000      -0.88950000
