19
Properties=species:S:1:pos:R:3 gdb_57309=T pbc="F F F"
C        0.12240000       1.58570000       0.20070000
C       -0.01160000       0.06820000       0.00250000
C        0.55400000      -0.70700000       1.20200000
O       -1.37270000      -0.29140000      -0.23460000
C        0.79110000      -0.32940000      -1.25520000
O        1.97850000      -0.12870000      -1.29920000
C        0.00360000      -0.97260000      -2.40210000
C        0.81340000      -1.32120000      -3.55560000
C        1.47590000      -1.61260000      -4.51360000
H        1.17500000       1.86870000       0.26880000
H       -0.33400000       2.12350000      -0.63530000
H       -0.38350000       1.89090000       1.12380000
H        0.04900000      -0.39590000       2.12360000
H        0.39930000      -1.78190000       1.07130000
H        1.62390000      -0.51550000       1.30780000
H       -1.88350000      -0.04780000       0.54390000
H       -0.51710000      -1.84840000      -1.99460000
H       -0.80860000      -0.28560000      -2.67150000
H        2.06560000      -1.86840000      -5.35850000
