16
Properties=species:S:1:pos:R:3 gdb_69682=T pbc="F F F"
C       -0.09780000       1.52230000       0.04650000
C        0.13380000       0.05000000       0.03390000
O       -0.76840000      -0.81340000       0.73620000
C        0.63400000      -0.92030000       1.00840000
C        1.30620000      -1.76500000      -0.11470000
C        0.33330000      -2.21690000      -1.18420000
C       -1.00030000      -2.73760000      -1.00420000
N       -2.03750000      -3.24800000      -0.96810000
C        0.77950000      -0.76970000      -1.13770000
H        0.80680000       2.05960000      -0.25600000
H       -0.90060000       1.79240000      -0.64850000
H       -0.38450000       1.85050000       1.04860000
H        0.96000000      -0.82760000       2.03700000
H        2.29470000      -2.19760000      -0.03730000
H        0.85180000      -2.75480000      -1.97550000
H        1.30050000      -0.31910000      -1.97260000
