18
Properties=species:S:1:pos:R:3 gdb_67746=T pbc="F F F"
C       -0.01990000       1.58120000      -0.03560000
C        0.12860000       0.08220000       0.02580000
C        0.57560000      -0.68730000      -1.23830000
C        0.47470000      -1.98660000      -0.92870000
C       -0.00550000      -1.89480000       0.50440000
C       -0.56530000      -2.45980000       1.81780000
C       -0.60180000      -0.91080000       1.95480000
C        0.73470000      -0.71160000       1.20870000
N       -1.08250000      -0.77730000       0.49050000
H        0.93670000       2.06000000      -0.27250000
H       -0.74280000       1.86750000      -0.80680000
H       -0.37020000       1.98260000       0.92040000
H        0.86570000      -0.23590000      -2.17770000
H        0.66150000      -2.86550000      -1.52710000
H       -1.53660000      -2.95740000       1.75600000
H        0.13140000      -2.99980000       2.46340000
H       -1.04320000      -0.32000000       2.75710000
H        1.75700000      -0.70500000       1.60690000
