16
Properties=species:S:1:pos:R:3 gdb_34876=T pbc="F F F"
C       -0.10990000      -1.25550000      -0.04830000
C       -0.05540000      -0.05530000       0.00220000
C        0.02760000       1.38910000       0.04100000
C       -0.22110000       2.12090000       1.38850000
O        0.82220000       1.76550000       2.28720000
C        1.08400000       2.79790000       1.32160000
C        1.43300000       2.08140000       0.03070000
C        2.71740000       1.56220000      -0.46440000
N        2.05550000       2.71870000      -1.11580000
H       -0.16150000      -2.31580000      -0.07490000
H       -0.59820000       1.83900000      -0.74010000
H       -1.17240000       2.43100000       1.80360000
H        1.40950000       3.76640000       1.67990000
H        3.64200000       1.79630000       0.05490000
H        2.70070000       0.59880000      -0.96700000
H        1.60130000       2.42620000      -1.97810000
