19
Properties=species:S:1:pos:R:3 gdb_40925=T pbc="F F F"
C        0.21990000       1.52270000      -0.26380000
C        1.65960000       1.39780000       0.27090000
C        1.21420000       0.00050000       0.72900000
C        1.95420000      -1.33110000       0.42740000
C        1.97870000      -1.67900000       1.93820000
C        3.10990000      -1.01720000       2.74500000
O        2.33930000       0.19670000       2.93500000
C        1.20740000      -0.36310000       2.24090000
O       -0.07410000       0.15470000       0.10320000
H       -0.42060000       2.23430000       0.27150000
H        0.10900000       1.68480000      -1.34160000
H        2.43270000       1.39420000      -0.50030000
H        1.95310000       2.07230000       1.07560000
H        1.30610000      -1.99490000      -0.15070000
H        2.92310000      -1.25330000      -0.07550000
H        1.65420000      -2.67230000       2.24240000
H        3.32950000      -1.49480000       3.70770000
H        4.05220000      -0.83540000       2.21230000
H        0.26340000      -0.26180000       2.78320000
