18
Properties=species:S:1:pos:R:3 gdb_44486=T pbc="F F F"
O        0.01120000      -0.02330000      -0.09190000
C       -0.00980000       1.17770000       0.04380000
N       -1.12760000       1.98610000       0.13010000
C       -0.74140000       3.36490000       0.27910000
C        0.09520000       4.06720000      -0.88100000
C        0.96190000       4.66960000       0.25570000
C        0.64950000       3.33360000       0.96530000
C        1.15150000       2.18180000       0.04450000
C        0.99450000       2.90960000      -1.34620000
H       -2.05040000       1.65060000      -0.09200000
H       -1.50510000       3.99190000       0.73720000
H       -0.37560000       4.68710000      -1.64340000
H        2.00140000       4.91340000       0.02360000
H        0.48410000       5.51280000       0.76180000
H        0.74850000       3.18910000       2.04120000
H        2.12120000       1.73380000       0.24630000
H        0.54350000       2.26470000      -2.10420000
H        1.95210000       3.27040000      -1.73000000
