15
Properties=species:S:1:pos:R:3 gdb_19800=T pbc="F F F"
N       -0.01720000       1.24870000       0.00920000
C       -0.03330000      -0.00430000       0.03480000
O        1.02090000      -0.91360000       0.07140000
C        0.09070000      -2.04870000       0.00080000
C       -0.35470000      -2.66030000       1.34200000
C       -0.47170000      -1.60750000       2.40850000
C       -1.54790000      -1.68750000       1.37020000
C       -1.10160000      -1.08160000       0.00820000
H        0.93920000       1.60860000       0.02430000
H        0.33520000      -2.72220000      -0.81860000
H       -0.31720000      -3.71720000       1.57320000
H       -0.75410000      -1.99080000       3.38350000
H        0.22090000      -0.77310000       2.44200000
H       -2.58180000      -1.88370000       1.62130000
H       -1.85040000      -1.04680000      -0.77920000
