21
Properties=species:S:1:pos:R:3 gdb_79820=T pbc="F F F"
C       -0.13550000       1.59170000      -0.00910000
C        0.06790000       0.07960000      -0.02880000
C        0.74400000      -0.57610000      -1.23490000
C        2.25010000      -0.46950000      -1.10420000
O        2.80730000       0.54670000      -0.29520000
C        2.36990000       0.28540000       1.04360000
C        1.14210000      -0.61930000       0.89740000
C        0.65290000      -1.26010000       2.17960000
C        1.54430000      -1.51180000      -0.31720000
H        0.78920000       2.12240000      -0.24740000
H       -0.88700000       1.88070000      -0.75260000
H       -0.49610000       1.93560000       0.96730000
H       -0.89050000      -0.42120000       0.15130000
H        0.27210000      -0.80250000      -2.18570000
H        2.86250000      -0.71560000      -1.96350000
H        3.16690000      -0.21890000       1.61300000
H        2.14860000       1.24250000       1.52740000
H        0.30230000      -0.50320000       2.89090000
H       -0.17890000      -1.94480000       1.98690000
H        1.45010000      -1.83120000       2.66950000
H        1.70580000      -2.58190000      -0.33490000
