21
Properties=species:S:1:pos:R:3 gdb_113082=T pbc="F F F"
C        0.31220000       0.57830000      -0.76070000
O       -0.10030000      -0.58790000      -0.08130000
C       -1.46410000      -0.58510000       0.30100000
C       -2.43790000      -1.03380000      -0.82350000
C       -2.37190000      -2.49410000      -0.28600000
C       -1.45680000      -3.41110000      -1.07860000
O       -2.08220000      -3.65800000      -2.33350000
C       -1.74040000      -1.92980000       1.03070000
O       -0.64140000      -2.57070000       1.61710000
H        1.37640000       0.46710000      -0.98110000
H       -0.23360000       0.71750000      -1.70420000
H        0.16580000       1.47400000      -0.13880000
H       -1.69740000       0.34530000       0.83730000
H       -3.42650000      -0.57870000      -0.72480000
H       -2.08790000      -0.89160000      -1.84830000
H       -3.33880000      -2.98910000      -0.16120000
H       -0.47430000      -2.93590000      -1.21460000
H       -1.29890000      -4.34340000      -0.51640000
H       -1.50200000      -4.22740000      -2.84700000
H       -2.50970000      -1.80610000       1.79970000
H        0.13900000      -2.21080000       1.17490000
