19
Properties=species:S:1:pos:R:3 gdb_11576=T pbc="F F F"
O       -0.56160000      -0.20060000       1.41120000
C       -0.47580000       0.09750000       0.02730000
C       -1.57530000      -0.52990000      -0.84560000
O       -1.32510000      -0.17200000      -2.20210000
C       -1.72670000      -2.05590000      -0.66680000
C       -2.73230000      -2.47340000       0.38660000
C       -2.55690000      -3.72920000       1.15730000
N       -2.41460000      -2.42430000       1.82200000
H       -1.40690000       0.12190000       1.74280000
H       -0.46330000       1.18130000      -0.15370000
H        0.49530000      -0.29860000      -0.29770000
H       -2.53600000      -0.05150000      -0.61210000
H       -0.50950000      -0.60660000      -2.47610000
H       -2.05650000      -2.45250000      -1.63510000
H       -0.74900000      -2.50730000      -0.44800000
H       -3.75220000      -2.15750000       0.16680000
H       -3.42150000      -4.31280000       1.46170000
H       -1.66190000      -4.31720000       0.96700000
H       -1.43190000      -2.18430000       1.93090000
