19
Properties=species:S:1:pos:R:3 gdb_60806=T pbc="F F F"
C       -0.23530000       1.43950000      -0.10210000
C        0.01020000      -0.07230000       0.00300000
C        0.76480000      -0.57540000      -1.21900000
O        0.42400000      -1.52360000      -1.87840000
C        0.84390000      -0.43820000       1.26610000
O        2.08090000       0.21880000       1.25160000
C        0.09290000      -0.10040000       2.56050000
C       -1.23990000      -0.75730000       2.82440000
O        0.60300000       0.68130000       3.33530000
H        0.71600000       1.97710000      -0.11950000
H       -0.79050000       1.68340000      -1.01230000
H       -0.81260000       1.80970000       0.75090000
H       -0.93160000      -0.62990000       0.03130000
H        1.68200000       0.00230000      -1.46380000
H        0.99510000      -1.53130000       1.26240000
H        2.10330000       0.73280000       2.07690000
H       -2.01790000      -0.26030000       2.23320000
H       -1.23260000      -1.81020000       2.52780000
H       -1.49260000      -0.66190000       3.88100000
