13
Properties=species:S:1:pos:R:3 gdb_28091=T pbc="F F F"
O        0.10160000       1.31120000       0.16090000
C        0.02700000      -0.01900000       0.01950000
N       -0.12580000      -0.68210000      -1.10130000
C       -0.14000000      -1.99970000      -0.70530000
O       -0.32490000      -3.02890000      -1.58480000
C        0.12150000      -2.88060000      -2.86610000
O       -0.06210000      -3.72710000      -3.68500000
C       -0.00100000      -2.13630000       0.64230000
N        0.10510000      -0.82100000       1.10290000
H        0.00550000       1.69150000      -0.72130000
H        0.64220000      -1.92550000      -3.02430000
H        0.03030000      -2.99000000       1.29390000
H        0.20050000      -0.51690000       2.05650000
