16
Properties=species:S:1:pos:R:3 gdb_84340=T pbc="F F F"
C       -0.05060000       1.45580000       0.01860000
N       -0.00090000       0.00830000      -0.00570000
C        0.03550000      -0.78540000      -1.14460000
C        0.04210000      -2.09510000      -0.76320000
C        0.03080000      -2.11690000       0.67060000
C        0.04990000      -3.22530000       1.54180000
N        0.06770000      -4.11070000       2.29250000
C        0.00630000      -0.79140000       1.09910000
N       -0.09640000      -0.25950000       2.38260000
H       -0.16920000      -0.99590000       3.07470000
H        0.66680000       0.35920000       2.63490000
H        0.94860000       1.89890000       0.10610000
H       -0.51010000       1.81500000      -0.90400000
H       -0.65730000       1.78070000       0.86730000
H        0.05300000      -0.33000000      -2.12100000
H        0.05870000      -2.95670000      -1.41050000
