22
Properties=species:S:1:pos:R:3 gdb_87190=T pbc="F F F"
C       -0.09800000       1.49580000      -0.19700000
C        0.12850000       0.00640000      -0.08960000
N        1.51840000      -0.47350000      -0.14700000
C        0.74140000      -0.69100000       1.08480000
C        1.22820000       0.06340000       2.30670000
C        0.23170000      -2.09350000       1.37630000
C        1.29560000      -3.09630000       1.82770000
C        0.77060000      -4.41690000       2.36600000
O        2.47950000      -2.86370000       1.75220000
H        0.68320000       2.05820000       0.31750000
H       -0.08920000       1.80490000      -1.24800000
H       -1.06830000       1.77720000       0.22730000
H       -0.61570000      -0.58270000      -0.62810000
H        1.60140000      -1.33230000      -0.68370000
H        1.61310000       1.04690000       2.03490000
H        0.41910000       0.19590000       3.03490000
H        2.04050000      -0.48870000       2.78720000
H       -0.56450000      -2.06790000       2.13350000
H       -0.24130000      -2.52350000       0.48110000
H        0.26940000      -4.24980000       3.32690000
H        0.02450000      -4.85040000       1.69130000
H        1.59690000      -5.11420000       2.50860000
