17
Properties=species:S:1:pos:R:3 gdb_123812=T pbc="F F F"
C       -0.36650000       1.09410000      -0.17150000
C        1.09970000       1.05180000       0.22020000
C        0.34190000      -0.21560000       0.00460000
O        0.08930000      -0.96700000       1.16810000
C       -0.90910000      -1.87040000       1.08750000
N       -1.61000000      -2.08710000      -0.01780000
N       -2.47490000      -3.06890000       0.34300000
C       -2.32940000      -3.45750000       1.63000000
C       -1.31040000      -2.69890000       2.16190000
H       -1.07490000       1.37410000       0.59940000
H       -0.63800000       1.40060000      -1.17530000
H        1.85050000       1.33300000      -0.50950000
H        1.34450000       1.30240000       1.24600000
H        0.54050000      -0.82610000      -0.87060000
H       -3.13080000      -3.40750000      -0.33800000
H       -2.94770000      -4.22780000       2.06360000
H       -0.90830000      -2.72780000       3.16010000
