19
Properties=species:S:1:pos:R:3 gdb_13695=T pbc="F F F"
C        0.29260000       1.24680000       0.24700000
N       -0.28120000       0.07200000      -0.37440000
C        0.50160000      -0.69760000      -0.98600000
O        0.03380000      -1.81720000      -1.58520000
C        0.98280000      -2.56770000      -2.30340000
C        1.93330000      -3.46510000      -1.55070000
C        0.77680000      -4.05200000      -2.33690000
C       -0.39260000      -4.69140000      -1.62120000
H        1.38240000       1.34220000       0.10870000
H       -0.18480000       2.14670000      -0.15740000
H        0.08350000       1.23370000       1.32280000
H        1.58750000      -0.55160000      -1.08870000
H        1.33350000      -2.06930000      -3.20440000
H        2.94680000      -3.57810000      -1.91970000
H        1.83940000      -3.47010000      -0.46960000
H        1.04180000      -4.52080000      -3.28080000
H       -0.65140000      -4.13690000      -0.71670000
H       -1.28050000      -4.71160000      -2.26150000
H       -0.15600000      -5.72250000      -1.33880000
