11
Properties=species:S:1:pos:R:3 gdb_21865=T pbc="F F F"
O       -0.09630000       1.31190000       0.18230000
C        0.00390000      -0.00830000       0.03850000
C        1.15760000      -0.69740000      -0.11640000
N        1.16560000      -2.07430000      -0.25940000
N        0.16410000      -2.77760000      -0.25950000
O       -1.14810000      -2.09520000      -0.09380000
C       -1.26890000      -0.74350000       0.05470000
N       -2.38170000      -0.15390000       0.19640000
H        0.78230000       1.71350000       0.16020000
H        2.13360000      -0.22790000      -0.13860000
H       -3.14740000      -0.82960000       0.18200000
