19
Properties=species:S:1:pos:R:3 gdb_111351=T pbc="F F F"
O        0.03730000       1.48210000      -0.11010000
C        0.05860000       0.07270000       0.07730000
C       -1.34040000      -0.52730000       0.09190000
C       -2.08050000      -0.57870000      -1.26780000
O       -1.30690000      -1.40270000      -2.15010000
C       -2.18600000      -2.04440000      -1.20990000
C       -1.48200000      -2.07740000       0.13100000
C       -0.54190000      -3.12130000       0.65550000
C       -1.88830000      -2.90850000       1.31130000
H       -0.21830000       1.64850000      -1.02270000
H        0.66010000      -0.43050000      -0.69120000
H        0.54760000      -0.09310000       1.04360000
H       -1.95280000      -0.04370000       0.85970000
H       -2.73930000       0.15510000      -1.71780000
H       -2.93270000      -2.72050000      -1.61130000
H       -0.39050000      -4.01830000       0.06420000
H        0.34080000      -2.79010000       1.19260000
H       -1.91630000      -2.43210000       2.28600000
H       -2.65410000      -3.66400000       1.16500000
