15
Properties=species:S:1:pos:R:3 gdb_48538=T pbc="F F F"
O       -0.17050000       0.01050000      -0.04830000
C       -0.03490000       1.20810000       0.04950000
C        1.24430000       1.90530000      -0.04500000
C        1.90810000       2.94750000       0.83070000
O        3.12710000       2.26650000       0.91770000
C        2.68960000       1.36420000      -0.19850000
C        3.23370000       2.00290000      -1.44850000
C        2.57490000       3.15480000      -1.63930000
C        1.50660000       3.30320000      -0.61740000
H       -0.90450000       1.88030000       0.23400000
H        1.56700000       3.50500000       1.69500000
H        2.91490000       0.32710000       0.03460000
H        4.11640000       1.66110000      -1.97120000
H        2.81490000       3.92590000      -2.36020000
H        0.67320000       3.98680000      -0.73100000
