21
Properties=species:S:1:pos:R:3 gdb_72911=T pbc="F F F"
O        0.04150000       1.27540000      -0.37830000
C        0.03760000      -0.07710000       0.04410000
C        0.33750000      -1.08000000      -1.11680000
C       -1.17060000      -1.46030000      -1.16640000
C       -1.41790000      -0.63210000       0.13180000
C       -1.51310000      -1.37130000       1.45670000
C       -0.57230000      -2.52550000       1.71920000
C       -0.22890000      -1.15550000       2.24220000
C        0.71570000      -0.28500000       1.42120000
H        0.94870000       1.51290000      -0.60010000
H        0.73310000      -0.60210000      -2.01680000
H        1.00300000      -1.90140000      -0.83710000
H       -1.68390000      -1.04990000      -2.03850000
H       -1.40190000      -2.52520000      -1.09680000
H       -2.18910000       0.13680000       0.05340000
H       -2.47250000      -1.38990000       1.96170000
H       -0.89530000      -3.26700000       2.44230000
H        0.00710000      -2.94310000       0.90200000
H       -0.25430000      -1.00100000       3.31540000
H        1.72060000      -0.71550000       1.33090000
H        0.81600000       0.69720000       1.89510000
