18
Properties=species:S:1:pos:R:3 gdb_88705=T pbc="F F F"
C       -0.13360000       1.55820000      -0.10510000
C       -0.01780000       0.06080000       0.05090000
N        1.30530000      -0.54340000      -0.16720000
C        0.69300000      -0.62430000       1.16870000
C        1.40940000       0.10360000       2.25760000
N        0.80390000       0.05780000       3.58860000
C        2.09570000      -0.62550000       3.37740000
C        2.08420000      -2.06620000       3.46260000
N        2.09690000      -3.22130000       3.51220000
H        0.76840000       2.06840000       0.24060000
H       -0.27520000       1.82070000      -1.15870000
H       -0.99120000       1.94360000       0.45660000
H       -0.87530000      -0.49070000      -0.33390000
H        1.23430000      -1.43550000      -0.64770000
H        0.27880000      -1.57820000       1.48760000
H        1.91000000       1.01750000       1.94850000
H        0.95500000       0.92420000       4.09800000
H        2.99790000      -0.17190000       3.77870000
