21
Properties=species:S:1:pos:R:3 gdb_73696=T pbc="F F F"
C        0.01440000       1.54960000      -0.05040000
C       -0.01520000       0.02880000      -0.02260000
C        0.32560000      -0.59260000      -1.38550000
C       -0.20680000      -2.02370000      -1.51890000
C        0.04100000      -2.80690000      -0.22400000
C       -0.25010000      -1.92400000       0.98430000
C        0.60320000      -0.65470000       1.23940000
O       -0.49940000      -0.11780000       2.06520000
C       -1.13870000      -0.64970000       0.84410000
H        0.98880000       1.90860000      -0.40240000
H       -0.74190000       1.93850000      -0.74210000
H       -0.17340000       1.96130000       0.94180000
H       -0.08090000       0.03540000      -2.18680000
H        1.41720000      -0.57340000      -1.51270000
H       -1.28880000      -1.97870000      -1.69740000
H        0.23100000      -2.53030000      -2.38490000
H       -0.58350000      -3.70660000      -0.19530000
H        1.08180000      -3.15410000      -0.17230000
H       -0.45170000      -2.47240000       1.90670000
H        1.61730000      -0.57270000       1.63810000
H       -2.22460000      -0.55780000       0.77460000
