18
Properties=species:S:1:pos:R:3 gdb_61716=T pbc="F F F"
N        0.11520000       0.40890000       0.82970000
C       -0.40500000      -0.53940000      -0.00550000
N        0.53440000      -1.42390000      -0.58160000
C        1.85930000      -1.57150000      -0.30180000
O        2.50340000      -0.92380000       0.50250000
N       -1.61860000      -0.70910000      -0.37170000
C       -2.59030000       0.20820000       0.13310000
C       -4.03770000      -0.08070000      -0.14230000
C       -3.50990000      -0.22560000       1.26450000
H        1.07660000       0.27530000       1.12020000
H       -0.52700000       0.81470000       1.48960000
H        0.10980000      -2.04200000      -1.25790000
H        2.31190000      -2.37550000      -0.90970000
H       -2.30230000       1.26120000       0.12940000
H       -4.69860000       0.74960000      -0.36510000
H       -4.24470000      -0.99170000      -0.69210000
H       -3.36990000      -1.23090000       1.64470000
H       -3.80120000       0.50720000       2.00970000
