14
Properties=species:S:1:pos:R:3 gdb_123673=T pbc="F F F"
C       -0.05140000       1.59550000      -0.05140000
C        1.48630000       1.31210000       0.00500000
O        1.17040000       0.18800000       0.89920000
C       -0.02820000       0.03440000       0.03980000
C        0.62500000      -0.34080000      -1.29110000
C        1.65840000       0.54060000      -1.30040000
O        2.41940000       0.43420000      -2.37240000
N        1.86050000      -0.60660000      -3.16550000
C        0.80310000      -1.04290000      -2.49930000
H       -0.40880000       2.06360000       0.86820000
H       -0.47100000       2.06360000      -0.94400000
H        2.23630000       2.00660000       0.37370000
H       -0.82370000      -0.56110000       0.47980000
H        0.23150000      -1.84750000      -2.94030000
