17
Properties=species:S:1:pos:R:3 gdb_54940=T pbc="F F F"
N        0.36140000       0.99340000       0.33300000
C       -0.16640000       0.12960000      -0.57930000
O        0.39860000      -0.15720000      -1.61740000
C       -1.50430000      -0.47930000      -0.19000000
C       -2.37800000      -0.94690000      -1.38920000
N       -2.34450000      -2.30450000      -0.83460000
C       -1.42470000      -1.98230000       0.25180000
C       -2.67070000      -3.51610000      -1.33640000
O       -2.37310000      -4.57350000      -0.81900000
H        1.28220000       1.36430000       0.16280000
H       -0.08680000       1.19470000       1.20920000
H       -2.04420000       0.14180000       0.52690000
H       -3.37680000      -0.50360000      -1.44740000
H       -1.85730000      -0.84540000      -2.34570000
H       -0.43830000      -2.44180000       0.13180000
H       -1.80920000      -2.20550000       1.25120000
H       -3.26260000      -3.43250000      -2.27130000
