23
Properties=species:S:1:pos:R:3 gdb_121729=T pbc="F F F"
C        0.05610000       1.60530000      -0.07320000
C       -0.07940000       0.08120000      -0.05750000
C        0.76710000      -0.59940000      -1.13410000
C        0.70240000      -2.12180000      -1.09090000
O        0.24220000      -2.73190000      -0.15860000
C        1.26880000      -2.82130000      -2.32520000
O        1.32170000      -4.19950000      -2.12920000
C        1.80770000      -4.90670000      -3.25410000
C        1.81590000      -6.38870000      -2.92190000
H        1.09300000       1.91540000       0.09930000
H       -0.25730000       2.02630000      -1.03540000
H       -0.56090000       2.06390000       0.70560000
H        0.20940000      -0.31770000       0.91980000
H       -1.12860000      -0.20400000      -0.19490000
H        0.48470000      -0.25580000      -2.13920000
H        1.82520000      -0.31700000      -1.02360000
H        0.62660000      -2.55240000      -3.18610000
H        2.26490000      -2.39530000      -2.54900000
H        1.16900000      -4.70820000      -4.13190000
H        2.82330000      -4.56030000      -3.51180000
H        2.45980000      -6.58380000      -2.06000000
H        0.80640000      -6.73130000      -2.67890000
H        2.18640000      -6.96760000      -3.77310000
