18
Properties=species:S:1:pos:R:3 gdb_16973=T pbc="F F F"
C       -0.03690000       1.60750000      -0.24430000
C        1.52370000       1.47960000       0.06020000
C        1.12600000       0.25060000       0.92970000
C        1.10890000      -1.33040000       1.09480000
C       -0.47370000      -1.02150000       1.12710000
C       -0.55320000      -0.18530000       2.40230000
C        0.48450000       0.64250000       2.27780000
C       -0.09400000       0.07040000       0.04120000
H       -0.52810000       2.21770000       0.51570000
H       -0.33450000       1.94460000      -1.24000000
H        2.08190000       1.21470000      -0.84150000
H        2.01370000       2.32320000       0.55600000
H        1.43140000      -1.88340000       0.20740000
H        1.53410000      -1.76100000       2.00560000
H       -1.20950000      -1.80950000       0.95890000
H       -1.27490000      -0.29510000       3.19930000
H        0.85460000       1.41120000       2.94310000
H        0.18050000      -0.44300000      -0.88740000
