18
Properties=species:S:1:pos:R:3 gdb_126761=T pbc="F F F"
C       -0.24930000       1.51510000      -0.11740000
C        0.12100000       0.03770000       0.01190000
N        0.80770000      -0.46760000      -1.16310000
N        0.15740000      -0.63430000      -2.36180000
C        1.11550000      -1.07550000      -3.15670000
C        0.87600000      -1.40950000      -4.58980000
N        2.34460000      -1.20520000      -2.55880000
C        2.09520000      -0.81320000      -1.32940000
O        2.96690000      -0.74400000      -0.31400000
H        0.64600000       2.13470000      -0.22310000
H       -0.88370000       1.67030000      -0.99330000
H       -0.79450000       1.84450000       0.77210000
H        0.78600000      -0.13010000       0.86270000
H       -0.77640000      -0.57100000       0.15980000
H        1.51620000      -0.80580000      -5.24110000
H        1.11100000      -2.46010000      -4.78840000
H       -0.16830000      -1.22450000      -4.84710000
H        3.81400000      -1.05250000      -0.65950000
