15
Properties=species:S:1:pos:R:3 gdb_4179=T pbc="F F F"
O       -0.20820000       1.31010000       0.12230000
N        0.02970000      -0.08590000      -0.01310000
C       -1.07660000      -0.70150000       0.02430000
C       -1.43460000      -2.13670000      -0.07370000
C       -2.29130000      -2.49480000       1.12950000
C       -2.93360000      -1.73970000       0.01450000
C       -2.54190000      -0.25860000       0.07770000
O       -2.99080000       0.45090000       1.20510000
H        0.68320000       1.67190000       0.08910000
H       -0.95260000      -2.88740000      -0.68530000
H       -2.55240000      -3.54610000       1.19370000
H       -2.11870000      -2.01010000       2.08440000
H       -3.75710000      -2.13520000      -0.56450000
H       -2.79640000       0.25850000      -0.86020000
H       -2.43120000       1.23360000       1.27320000
