11
Properties=species:S:1:pos:R:3 gdb_21680=T pbc="F F F"
N        0.03810000       1.40020000       0.14220000
C       -0.01430000       0.02640000       0.03030000
N       -1.16480000      -0.56470000       0.01330000
O       -1.13220000      -1.95600000       0.01500000
C        0.03650000      -2.69920000      -0.02390000
O       -0.05530000      -3.88990000      -0.04540000
N        1.26290000      -2.01010000      -0.03260000
C        1.22630000      -0.73180000       0.00130000
H        0.78770000       1.85550000      -0.35790000
H       -0.85580000       1.85750000       0.02150000
H        2.17340000      -0.18750000       0.00950000
