14
Properties=species:S:1:pos:R:3 gdb_27980=T pbc="F F F"
N        0.08570000       1.40810000       0.15320000
C       -0.02370000       0.02620000       0.03130000
C       -1.08320000      -0.80250000      -0.00610000
N       -0.58870000      -2.13280000      -0.01990000
C       -1.39750000      -3.26290000      -0.04160000
O       -1.02230000      -4.40270000      -0.06950000
C        0.83400000      -2.11390000       0.00520000
O        1.60630000      -3.03590000       0.02920000
N        1.13180000      -0.75360000       0.00430000
H        0.66460000       1.82660000      -0.56760000
H       -0.81820000       1.86250000       0.16370000
H       -2.13780000      -0.59490000      -0.04830000
H       -2.46620000      -2.96780000      -0.03250000
H        2.06040000      -0.42570000       0.21090000
