18
Properties=species:S:1:pos:R:3 gdb_52925=T pbc="F F F"
C        0.00090000       1.46990000       0.00070000
C        0.02700000       0.01610000      -0.00120000
C        0.04280000      -1.19050000      -0.00320000
C        0.05200000      -2.59750000      -0.00650000
C        0.72920000      -3.66780000       0.82530000
C       -0.63540000      -4.26940000       1.10080000
N       -1.17760000      -3.56410000      -0.12620000
C       -0.41340000      -4.26260000      -1.23310000
C        0.87440000      -3.66340000      -0.70180000
H        0.58110000       1.88430000      -0.83160000
H       -1.02610000       1.83910000      -0.09730000
H        0.41110000       1.87910000       0.93090000
H        1.58510000      -3.54090000       1.47620000
H       -0.76030000      -5.35810000       1.08730000
H       -1.10720000      -3.85300000       1.99400000
H       -0.53800000      -5.35130000      -1.24960000
H       -0.70850000      -3.84080000      -2.19680000
H        1.83760000      -3.53310000      -1.17890000
