19
Properties=species:S:1:pos:R:3 gdb_58002=T pbc="F F F"
C        0.16140000       1.56130000       0.10260000
C        0.09200000       0.01800000       0.10630000
C        0.88160000      -0.58570000      -1.05970000
C        0.62350000      -0.47770000       1.44650000
O        1.78800000      -0.71990000       1.65220000
C       -0.41940000      -0.66720000       2.55290000
O        0.15350000      -0.72630000       3.84340000
C        0.85800000      -1.84180000       4.15350000
O        1.44160000      -1.95520000       5.18620000
H        1.20060000       1.89450000       0.17960000
H       -0.25740000       1.95210000      -0.82910000
H       -0.39870000       2.00250000       0.93320000
H       -0.96470000      -0.27360000       0.03130000
H        1.94430000      -0.35410000      -0.95570000
H        0.77930000      -1.67460000      -1.09030000
H        0.52530000      -0.18250000      -2.01190000
H       -1.12960000       0.16360000       2.56280000
H       -0.99300000      -1.57820000       2.31900000
H        0.79650000      -2.62190000       3.37330000
