16
Properties=species:S:1:pos:R:3 gdb_39729=T pbc="F F F"
C        0.00860000       1.50970000      -0.01960000
N        1.24860000       0.70020000       0.05420000
C       -0.04760000       0.03890000       0.03750000
C       -0.51020000      -0.86260000       1.14990000
C       -1.73820000      -1.54260000       0.55190000
O       -1.92510000      -1.04200000      -0.76460000
C       -0.55360000      -0.85600000      -1.09790000
O        0.06300000      -2.10600000      -0.80880000
C       -0.40960000      -2.25260000       0.52180000
H       -0.20190000       2.10090000       0.86700000
H       -0.24630000       1.99710000      -0.95800000
H        1.69510000       0.64190000      -0.85890000
H       -0.36940000      -0.65750000       2.20030000
H       -2.63880000      -1.84230000       1.06590000
H       -0.42200000      -0.56910000      -2.13810000
H       -0.13810000      -3.17460000       1.01250000
