14
Properties=species:S:1:pos:R:3 gdb_15861=T pbc="F F F"
C       -0.39490000       1.42890000       0.14870000
C        0.06980000      -0.00750000       0.08540000
O        1.27430000      -0.14760000      -0.76760000
C        2.02230000      -0.65840000       0.24920000
O        3.16660000      -0.97650000       0.24680000
C        0.85790000      -0.63600000       1.25730000
C        1.09670000       0.07660000       2.56740000
O        0.41700000       0.96850000       3.00290000
H        0.40000000       2.09110000       0.49710000
H       -0.71010000       1.75190000      -0.84770000
H       -1.23850000       1.52180000       0.83630000
H       -0.70950000      -0.66460000      -0.30860000
H        0.55820000      -1.66440000       1.49360000
H        1.97560000      -0.31450000       3.12370000
