22
Properties=species:S:1:pos:R:3 gdb_113999=T pbc="F F F"
C        0.51830000       1.66290000      -0.01820000
C       -0.04490000       0.23660000      -0.00730000
C        0.33390000      -0.53860000      -1.25500000
C        1.63990000      -1.29270000      -1.34330000
C        0.32480000      -2.04660000      -1.34720000
C       -0.05920000      -2.94120000      -0.18930000
N        0.54500000      -4.26150000      -0.31670000
C       -0.16210000      -5.41950000      -0.24760000
O       -1.35410000      -5.50600000      -0.03870000
H        1.61200000       1.65350000      -0.07220000
H        0.14970000       2.22560000      -0.88300000
H        0.22860000       2.21060000       0.88370000
H        0.31440000      -0.28500000       0.88680000
H       -1.13840000       0.27660000       0.08150000
H        0.02940000      -0.03900000      -2.17250000
H        2.22310000      -1.24480000      -2.25630000
H        2.23820000      -1.34140000      -0.43700000
H        0.01760000      -2.45020000      -2.30870000
H        0.23470000      -2.48900000       0.76540000
H       -1.13880000      -3.10760000      -0.15220000
H        1.53100000      -4.31450000      -0.51940000
H        0.48770000      -6.30370000      -0.40710000
