19
Properties=species:S:1:pos:R:3 gdb_106847=T pbc="F F F"
C       -0.25790000       1.52100000      -0.02710000
C        0.12610000       0.03720000       0.07010000
C        0.79810000      -0.47590000      -1.17100000
C        0.06080000      -0.95320000      -2.40220000
C        1.00120000      -1.89960000      -1.69760000
O        2.35060000      -1.62570000      -2.10720000
C        2.26760000      -0.28950000      -1.54320000
C        0.66400000      -3.17540000      -1.17470000
C        0.37240000      -4.25370000      -0.72680000
H        0.62380000       2.15050000      -0.18780000
H       -0.94600000       1.69450000      -0.86060000
H       -0.74570000       1.86000000       0.89160000
H        0.78860000      -0.11760000       0.93130000
H       -0.77030000      -0.56440000       0.26250000
H       -0.99570000      -1.15070000      -2.25130000
H        0.33590000      -0.60730000      -3.39520000
H        2.51600000       0.48610000      -2.27700000
H        2.92600000      -0.20070000      -0.67060000
H        0.11920000      -5.20780000      -0.33540000
