18
Properties=species:S:1:pos:R:3 gdb_123411=T pbc="F F F"
C       -0.05320000       1.58480000      -0.13710000
C       -0.14180000       0.07140000      -0.24530000
C       -0.11810000      -0.77680000       0.99910000
C       -1.39060000      -0.64540000       0.19560000
C        1.35880000       2.06980000      -0.03780000
N        1.84820000       2.63380000       1.05770000
N        3.13360000       2.88450000       0.70410000
C        3.35850000       2.47160000      -0.55790000
N        2.25980000       1.95000000      -1.06290000
H       -0.52420000       2.04230000      -1.01570000
H       -0.59890000       1.93130000       0.74600000
H        0.37030000      -0.33430000      -1.11260000
H        0.41380000      -1.72150000       0.97210000
H       -0.06690000      -0.26680000       1.95570000
H       -2.19560000      -0.05090000       0.61600000
H       -1.72810000      -1.49900000      -0.38190000
H        3.75770000       3.32760000       1.35760000
H        4.31270000       2.57200000      -1.05330000
