15
Properties=species:S:1:pos:R:3 gdb_42497=T pbc="F F F"
O       -0.10400000      -0.11710000       0.00050000
C       -0.03960000       1.08700000       0.00510000
C        1.26700000       1.87060000      -0.00280000
O        2.35040000       0.99310000      -0.01610000
C        3.59420000       1.67370000      -0.02390000
C        4.68580000       0.71100000      -0.03760000
C        5.60810000      -0.05710000      -0.04900000
C       -1.22220000       1.93610000       0.01890000
C       -2.19240000       2.64810000       0.03050000
H        1.25640000       2.53950000      -0.88320000
H        1.27170000       2.53170000       0.88350000
H        3.66610000       2.33160000      -0.90680000
H        3.68150000       2.32380000       0.86340000
H        6.41670000      -0.74560000      -0.05910000
H       -3.06020000       3.26240000       0.04070000
