20
Properties=species:S:1:pos:R:3 gdb_16568=T pbc="F F F"
C       -0.03440000       1.55870000      -0.02980000
C        1.45880000       2.01130000      -0.04100000
C        2.27140000       0.69410000       0.01570000
C        1.33950000      -0.30070000      -0.70180000
C        0.02200000       0.01210000       0.03250000
C        0.16580000      -0.46480000       1.48640000
O        1.20030000       0.22930000       2.16960000
C        2.43660000       0.22360000       1.46950000
H       -0.58380000       1.97820000       0.81730000
H       -0.54600000       1.88120000      -0.94170000
H        1.69260000       2.55980000      -0.95840000
H        1.69420000       2.66880000       0.80020000
H        3.25900000       0.78160000      -0.44780000
H        1.26360000      -0.07660000      -1.77180000
H        1.65660000      -1.34390000      -0.59630000
H       -0.85420000      -0.46540000      -0.41710000
H       -0.74690000      -0.27050000       2.05940000
H        0.35350000      -1.55250000       1.50550000
H        2.88480000      -0.78510000       1.48660000
H        3.09550000       0.89440000       2.03070000
