21
Properties=species:S:1:pos:R:3 gdb_40076=T pbc="F F F"
C       -0.23960000       1.30450000      -0.27390000
C        1.19410000       0.86310000      -0.02000000
C        0.08990000      -0.13320000       0.05350000
C       -0.38410000      -0.82730000       1.32220000
C       -1.42070000      -1.82520000       0.78960000
C       -2.81720000      -1.25370000       0.39870000
C       -2.47200000      -1.42090000      -1.10950000
C       -1.06060000      -1.95500000      -0.72780000
O        0.03230000      -1.08680000      -0.98560000
H       -0.73290000       1.91570000       0.47500000
H       -0.50960000       1.52810000      -1.29970000
H        1.85370000       0.79970000      -0.87810000
H        1.67680000       1.16670000       0.90300000
H        0.45060000      -1.36170000       1.78990000
H       -0.79540000      -0.12930000       2.05660000
H       -1.45050000      -2.75070000       1.36640000
H       -3.66010000      -1.85760000       0.74220000
H       -2.98590000      -0.22240000       0.71990000
H       -3.09030000      -2.15250000      -1.63590000
H       -2.44700000      -0.50110000      -1.69710000
H       -0.79690000      -2.93680000      -1.12710000
