15
Properties=species:S:1:pos:R:3 gdb_30359=T pbc="F F F"
O       -0.19610000       1.49160000       0.32240000
C       -0.02220000       0.11660000      -0.00040000
C        0.66450000      -0.71010000       1.14270000
O       -0.35620000      -1.42280000       1.88470000
C       -1.46130000      -1.40480000       1.10050000
C       -2.68910000      -1.97840000       1.09220000
O       -3.35660000      -1.51230000      -0.02360000
C       -2.53730000      -0.66000000      -0.69130000
C       -1.35300000      -0.56250000      -0.03790000
H        0.66690000       1.91750000       0.27890000
H        0.55280000       0.01440000      -0.93060000
H        1.35840000      -1.44890000       0.72410000
H        1.19920000      -0.06080000       1.84050000
H       -3.22770000      -2.66640000       1.71730000
H       -2.94870000      -0.21960000      -1.58410000
