15
Properties=species:S:1:pos:R:3 gdb_126743=T pbc="F F F"
C        0.13430000       1.50270000       0.13860000
C       -0.09590000       0.01110000      -0.09540000
N        0.65910000      -0.49230000      -1.23830000
C        1.71000000      -1.34230000      -1.26900000
N        2.12450000      -1.52740000      -2.50620000
C        1.26630000      -0.74140000      -3.21580000
N        0.35940000      -0.09350000      -2.48700000
C        1.31820000      -0.61190000      -4.63540000
N        1.36530000      -0.50980000      -5.78580000
H        1.18610000       1.70850000       0.35640000
H       -0.15700000       2.07470000      -0.74490000
H       -0.46760000       1.83940000       0.98720000
H        0.21490000      -0.58100000       0.76960000
H       -1.15310000      -0.19540000      -0.28280000
H        2.12560000      -1.79390000      -0.38090000
