17
Properties=species:S:1:pos:R:3 gdb_123413=T pbc="F F F"
C       -0.05090000       1.56850000      -0.17710000
C       -0.13370000       0.05090000      -0.23150000
C       -0.16710000      -0.75010000       1.04390000
C       -1.40210000      -0.64840000       0.18050000
C        1.35230000       2.05700000      -0.01900000
N        1.86210000       2.52460000       1.11730000
N        3.11020000       2.78610000       0.74920000
N        3.38490000       2.51380000      -0.51680000
N        2.27350000       2.04710000      -1.02150000
H       -0.46800000       1.99520000      -1.09620000
H       -0.64440000       1.94560000       0.66120000
H        0.41420000      -0.38680000      -1.06070000
H        0.36520000      -1.69420000       1.07450000
H       -0.15850000      -0.20560000       1.98250000
H       -2.22370000      -0.03840000       0.54210000
H       -1.71410000      -1.52170000      -0.38140000
H        3.79740000       3.17320000       1.37840000
