14
Properties=species:S:1:pos:R:3 gdb_25106=T pbc="F F F"
N        0.06450000       0.95700000      -1.13900000
C        0.09190000       0.14280000      -0.16590000
O        1.28660000      -0.39680000       0.22480000
C        1.48740000      -1.28170000       1.23930000
C        0.63950000      -1.84630000       2.09830000
C       -0.80850000      -1.70740000       2.24680000
N       -1.37340000      -2.38190000       3.17770000
N       -1.61590000      -0.88090000       1.43230000
C       -1.22560000      -0.14870000       0.47010000
H        1.00470000       1.09970000      -1.51450000
H        2.54590000      -1.51000000       1.28310000
H        1.08350000      -2.52670000       2.81580000
H       -2.37630000      -2.18020000       3.15440000
H       -1.99020000       0.42640000      -0.05320000
