23
Properties=species:S:1:pos:R:3 gdb_112572=T pbc="F F F"
C        0.13670000       0.72480000      -0.70400000
O       -0.04630000      -0.42900000       0.08140000
C        0.56610000      -0.35880000       1.37170000
C        0.18920000      -1.62840000       2.15720000
C        1.38360000      -2.61460000       2.00000000
C        1.67570000      -3.38310000       3.29810000
C        1.14550000      -3.60690000       0.84160000
C        2.50720000      -1.66100000       1.63580000
C        2.08010000      -0.44290000       1.31100000
H        1.18820000       0.88070000      -0.98720000
H       -0.45150000       0.59280000      -1.61590000
H       -0.21640000       1.63050000      -0.18440000
H        0.21360000       0.55970000       1.86820000
H        0.06690000      -1.36950000       3.21360000
H       -0.75860000      -2.03650000       1.79820000
H        0.81960000      -4.00440000       3.58400000
H        2.54000000      -4.04630000       3.17860000
H        1.88830000      -2.69850000       4.12590000
H        0.85870000      -3.06950000      -0.06600000
H        2.04800000      -4.19070000       0.62830000
H        0.34480000      -4.31120000       1.09450000
H        3.54350000      -1.98730000       1.62160000
H        2.70970000       0.38080000       0.99400000
