21
Properties=species:S:1:pos:R:3 gdb_58062=T pbc="F F F"
C        0.07190000       1.54970000      -0.02460000
C        0.01600000       0.01840000       0.04810000
C        0.81140000      -0.49300000       1.25510000
C       -1.46270000      -0.53220000       0.04320000
C       -2.23620000      -0.04720000      -1.21580000
C       -1.42880000      -2.00390000       0.01040000
C       -1.40140000      -3.20280000      -0.06700000
C       -2.18440000      -0.08820000       1.24650000
C       -2.78240000       0.30320000       2.21270000
H        1.11290000       1.88370000       0.02400000
H       -0.35460000       1.94220000      -0.95120000
H       -0.46400000       2.00060000       0.81700000
H        0.47010000      -0.39250000      -0.86260000
H        0.39490000      -0.10280000       2.18940000
H        0.80170000      -1.58430000       1.30800000
H        1.85260000      -0.16310000       1.18620000
H       -1.67710000      -0.31020000      -2.11830000
H       -3.21490000      -0.52880000      -1.26010000
H       -2.38500000       1.03330000      -1.18550000
H       -1.38170000      -4.26340000      -0.11740000
H       -3.31260000       0.63220000       3.07220000
