17
Properties=species:S:1:pos:R:3 gdb_47602=T pbc="F F F"
O       -0.02840000       0.07100000       0.41790000
C       -0.05680000       1.21680000       0.04240000
C       -1.37040000       1.93290000      -0.26500000
O       -1.21630000       3.05250000      -1.11390000
C       -0.32240000       4.00470000      -0.56090000
C        1.12090000       3.49350000      -0.61460000
C        1.96560000       3.80840000       0.63480000
O        1.72580000       2.48460000       1.16870000
C        1.22560000       2.03360000      -0.11790000
H       -2.04480000       1.22930000      -0.75920000
H       -1.83150000       2.22320000       0.69630000
H       -0.44070000       4.92060000      -1.14560000
H       -0.61050000       4.22750000       0.47970000
H        1.57600000       3.69410000      -1.58560000
H        3.03200000       3.97150000       0.43280000
H        1.59940000       4.59500000       1.30410000
H        1.97120000       1.41820000      -0.63840000
