17
Properties=species:S:1:pos:R:3 gdb_46309=T pbc="F F F"
O       -0.07650000       0.08430000      -0.16960000
C       -0.05730000       1.25250000       0.04830000
O       -1.08830000       2.04510000       0.48390000
C       -0.23140000       3.23060000       0.52060000
C        0.97420000       2.39650000       0.01050000
C        2.22790000       2.20760000       0.90200000
C        3.40270000       2.86980000       0.13640000
C        2.85610000       3.03020000      -1.25890000
C        1.55200000       2.77020000      -1.32920000
H       -0.60790000       4.00080000      -0.15610000
H       -0.14980000       3.61720000       1.53920000
H        2.08640000       2.61370000       1.90650000
H        2.41270000       1.13450000       1.00660000
H        3.67920000       3.84480000       0.55980000
H        4.30980000       2.25630000       0.16560000
H        3.46870000       3.34990000      -2.09460000
H        0.93720000       2.84080000      -2.21930000
