18
Properties=species:S:1:pos:R:3 gdb_4542=T pbc="F F F"
C       -0.02010000       1.46690000       0.01480000
N       -0.03010000       0.01910000       0.00000000
C       -0.03380000      -0.77850000      -1.13000000
C        0.02490000      -2.07210000      -0.68520000
C        0.03550000      -3.33550000      -1.48290000
N        0.07010000      -2.08630000       0.69330000
C        0.04040000      -0.82600000       1.07550000
C        0.07500000      -0.35920000       2.49330000
H        0.99660000       1.86840000      -0.07050000
H       -0.61530000       1.84810000      -0.81850000
H       -0.45980000       1.83300000       0.94450000
H       -0.08280000      -0.35090000      -2.11860000
H        0.93850000      -3.92210000      -1.28100000
H       -0.82100000      -3.97030000      -1.23000000
H       -0.00140000      -3.12530000      -2.55560000
H        0.94760000       0.27030000       2.70380000
H       -0.81830000       0.21690000       2.76370000
H        0.12200000      -1.23770000       3.13770000
