18
Properties=species:S:1:pos:R:3 gdb_39562=T pbc="F F F"
C       -0.01360000       1.53770000      -0.10290000
C        1.39900000       2.05580000      -0.00090000
C        2.28460000       1.45040000       0.78680000
C        1.87290000       0.22630000       1.58110000
C        0.99540000       0.61920000       2.76240000
C       -0.24040000       0.14080000       2.61360000
C       -0.33060000      -0.66840000       1.37060000
C       -0.06530000       0.01890000       0.06210000
N        1.01960000      -0.68840000       0.76160000
H       -0.63070000       2.02240000       0.66580000
H       -0.45220000       1.80970000      -1.06770000
H        1.66790000       2.93460000      -0.57900000
H        3.30130000       1.81450000       0.89340000
H        2.76270000      -0.32860000       1.89970000
H        1.34210000       1.27580000       3.55180000
H       -1.07370000       0.29700000       3.28780000
H       -0.88390000      -1.60470000       1.38040000
H       -0.37420000      -0.51440000      -0.83490000
