25
Properties=species:S:1:pos:R:3 gdb_122418=T pbc="F F F"
C       -0.16630000       1.54170000       0.05090000
C        0.04960000       0.02780000      -0.02420000
C        0.69760000      -0.55320000       1.23730000
C        0.91700000      -2.06920000       1.17080000
C        1.55390000      -2.64670000       2.42790000
C        0.72540000      -2.68550000       3.74700000
C        1.34780000      -4.06130000       4.05010000
O        0.44920000      -4.98560000       4.61970000
C        1.71920000      -4.18910000       2.54690000
H        0.78360000       2.07090000       0.18780000
H       -0.63230000       1.92630000      -0.86190000
H       -0.81490000       1.80750000       0.89320000
H       -0.91270000      -0.47160000      -0.19850000
H        0.67520000      -0.21120000      -0.89470000
H        1.66120000      -0.05390000       1.41220000
H        0.07190000      -0.31350000       2.10810000
H       -0.04550000      -2.57030000       0.99520000
H        1.54750000      -2.30820000       0.30250000
H        2.51710000      -2.15440000       2.60980000
H        0.85570000      -1.88660000       4.48020000
H       -0.34210000      -2.80930000       3.53620000
H        2.25250000      -3.95620000       4.66720000
H        0.91910000      -5.81270000       4.76640000
H        0.91820000      -4.71210000       2.01380000
H        2.68200000      -4.63330000       2.27990000
