14
Properties=species:S:1:pos:R:3 gdb_130348=T pbc="F F F"
N       -0.18320000       1.53930000      -0.08060000
C        0.05340000       0.09950000       0.01580000
C       -1.30210000      -0.71450000      -0.03000000
O       -1.40090000      -1.45280000      -1.29290000
C       -0.16300000      -1.34810000      -1.81360000
C        0.71980000      -0.56790000      -1.15610000
O        1.86210000      -0.54980000      -1.82080000
N        1.61750000      -1.42330000      -2.99230000
N        0.42780000      -1.84880000      -2.92600000
H        0.68930000       2.04500000       0.04250000
H       -0.52500000       1.77610000      -1.00890000
H        0.56370000      -0.08360000       0.96550000
H       -1.34520000      -1.44870000       0.77800000
H       -2.15740000      -0.04060000       0.03580000
