25
Properties=species:S:1:pos:R:3 gdb_104052=T pbc="F F F"
C        0.15220000       1.52320000       0.20970000
C        0.03750000       0.00940000      -0.01290000
C        0.69280000      -0.49850000      -1.30120000
C        0.04670000       0.11880000      -2.54730000
C        2.25630000      -0.40790000      -1.38690000
C        2.32980000      -1.89210000      -1.84240000
C        2.68430000      -2.89940000      -0.72330000
C        1.18610000      -2.94280000      -0.29390000
C        0.80180000      -2.04500000      -1.50800000
H        1.19790000       1.84920000       0.18370000
H       -0.39170000       2.09290000      -0.54950000
H       -0.25680000       1.80360000       1.18540000
H        0.49170000      -0.49820000       0.84580000
H       -1.02230000      -0.28150000      -0.01160000
H        0.19730000       1.20230000      -2.58810000
H        0.47700000      -0.30550000      -3.46100000
H       -1.03230000      -0.07600000      -2.56740000
H        2.63570000       0.32840000      -2.10070000
H        2.74730000      -0.22860000      -0.42430000
H        2.74570000      -2.06980000      -2.83510000
H        3.03610000      -3.86000000      -1.10960000
H        3.40350000      -2.55050000       0.02450000
H        0.74260000      -3.94060000      -0.33360000
H        0.96680000      -2.52660000       0.69220000
H        0.07720000      -2.48210000      -2.19900000
