18
Properties=species:S:1:pos:R:3 gdb_32844=T pbc="F F F"
C       -0.09580000       1.52860000       0.06400000
C       -0.05660000      -0.00060000       0.04580000
C        0.83400000      -0.57750000       1.16430000
C        0.87530000      -2.06550000       1.17210000
N        1.87530000      -2.84690000       0.88010000
C        1.37060000      -4.12370000       1.02200000
O        2.13400000      -5.20990000       0.80030000
C        0.06950000      -4.06800000       1.39700000
O       -0.25340000      -2.72950000       1.49500000
H        0.90520000       1.95340000      -0.06980000
H       -0.73190000       1.91610000      -0.73740000
H       -0.49060000       1.90420000       1.01450000
H       -1.06960000      -0.40350000       0.15540000
H        0.31600000      -0.35470000      -0.92250000
H        1.86260000      -0.22410000       1.05190000
H        0.46840000      -0.22200000       2.13600000
H        3.00760000      -4.88450000       0.55190000
H       -0.69970000      -4.78300000       1.62010000
