17
Properties=species:S:1:pos:R:3 gdb_44415=T pbc="F F F"
N        0.04810000       1.21080000      -0.41210000
C        0.04680000       0.01580000      -0.05470000
O        1.13060000      -0.85290000       0.26180000
C        0.16020000      -1.66520000       1.03630000
C       -0.68960000      -2.99390000       0.98000000
C       -1.90540000      -1.93740000       1.17070000
C       -0.96220000      -1.10310000       0.23210000
N       -0.92110000      -1.92070000      -1.01990000
C       -0.79340000      -3.30650000      -0.50490000
H        0.99950000       1.56970000      -0.51030000
H        0.20260000      -1.30500000       2.06530000
H       -0.52710000      -3.80920000       1.68420000
H       -2.87600000      -2.24720000       0.77560000
H       -1.99660000      -1.56870000       2.19210000
H       -1.78590000      -1.78020000      -1.52990000
H        0.10570000      -3.79360000      -0.89760000
H       -1.65710000      -3.93870000      -0.73960000
