18
Properties=species:S:1:pos:R:3 gdb_30799=T pbc="F F F"
C       -0.07420000       1.47400000       0.06860000
C       -0.03280000      -0.01600000      -0.01940000
C        0.22980000      -0.84420000      -1.09430000
C        0.16340000      -2.18400000      -0.62040000
O        0.34720000      -3.33880000      -1.32980000
C       -0.14360000      -2.15710000       0.72300000
C       -0.33080000      -3.24400000       1.71930000
O        0.48860000      -3.07870000       2.88350000
N       -0.27050000      -0.81750000       1.06160000
H        0.66220000       1.86670000       0.78120000
H        0.14660000       1.91190000      -0.90740000
H       -1.05890000       1.84190000       0.38250000
H        0.43850000      -0.52120000      -2.10410000
H        0.57980000      -3.10580000      -2.23260000
H       -1.35470000      -3.26720000       2.11370000
H       -0.15130000      -4.20700000       1.22270000
H        1.39900000      -3.01860000       2.57360000
H       -0.39630000      -0.50040000       2.00780000
