14
Properties=species:S:1:pos:R:3 gdb_29054=T pbc="F F F"
N       -0.00720000       1.36140000       0.00970000
C       -0.04730000       0.01880000       0.00180000
C       -1.25230000      -0.67730000       0.00530000
N       -1.51990000      -1.98610000      -0.00050000
C       -0.66500000      -2.97960000      -0.01060000
N        0.68770000      -3.02260000      -0.01770000
C        1.50940000      -2.01570000      -0.01720000
C        1.31170000      -0.57100000      -0.00990000
O        2.27960000       0.19250000      -0.01290000
H        0.91720000       1.77200000       0.00280000
H       -0.83450000       1.93060000       0.01360000
H       -2.14720000      -0.05120000       0.01420000
H       -1.12100000      -3.96780000      -0.01380000
H        2.57270000      -2.26470000      -0.02390000
