19
Properties=species:S:1:pos:R:3 gdb_76306=T pbc="F F F"
C        0.94080000       1.49900000       0.19290000
C        0.16780000       0.19200000       0.04080000
C        0.78790000      -0.83400000      -0.96290000
O        1.67020000      -0.39630000      -1.95380000
C        1.36120000      -1.67210000       0.24510000
C        2.76030000      -1.40870000       0.50390000
C        3.91220000      -1.12390000       0.71780000
C        0.39410000      -0.85080000       1.18350000
O        0.86620000      -0.43070000       2.42960000
H        2.00570000       1.33630000       0.38690000
H        0.86040000       2.09600000      -0.71970000
H        0.54010000       2.08220000       1.02660000
H       -0.88560000       0.41670000      -0.15070000
H        0.01200000      -1.40740000      -1.47610000
H        2.49530000      -0.13750000      -1.52500000
H        1.18070000      -2.74960000       0.20360000
H        4.93750000      -0.92010000       0.90770000
H       -0.51180000      -1.42980000       1.37920000
H        1.78930000      -0.16830000       2.32540000
