16
Properties=species:S:1:pos:R:3 gdb_123570=T pbc="F F F"
C       -0.04200000       1.46750000       0.10180000
C        1.29890000       0.77270000       0.00970000
C        2.05400000       0.44550000       1.31240000
C        1.08990000      -0.45390000       2.03500000
C        0.80710000      -1.13960000       3.19300000
N       -0.39210000      -1.77530000       3.03380000
N       -0.88050000      -1.50640000       1.84710000
N        0.02210000      -0.72080000       1.24560000
C        0.01390000      -0.03370000      -0.01590000
H       -0.36090000       1.88340000       1.05180000
H       -0.37000000       2.02030000      -0.77160000
H        1.87710000       0.90400000      -0.89640000
H        2.99800000      -0.06670000       1.09550000
H        2.30150000       1.34550000       1.88460000
H        1.37130000      -1.22900000       4.10680000
H       -0.37100000      -0.57950000      -0.86640000
