18
Properties=species:S:1:pos:R:3 gdb_18350=T pbc="F F F"
C        0.00190000       1.60890000      -0.06740000
C        0.01420000       0.07480000      -0.01180000
C        0.71710000      -0.58550000      -1.18390000
C        1.54960000      -1.56330000      -0.82660000
C        1.59500000      -1.73430000       0.66850000
O        2.79770000      -1.20040000       1.28200000
C        2.09950000       0.00310000       1.66900000
C        0.73450000      -0.56010000       1.20130000
H        1.01270000       2.02270000      -0.12990000
H       -0.55070000       1.95700000      -0.94640000
H       -0.48420000       2.03180000       0.81800000
H       -1.03650000      -0.25190000      -0.00010000
H        0.52700000      -0.27280000      -2.20670000
H        2.14480000      -2.16710000      -1.50220000
H        1.40620000      -2.75790000       1.01210000
H        2.19380000       0.19340000       2.74430000
H        2.46420000       0.88100000       1.12210000
H        0.05970000      -0.78990000       2.02640000
