16
Properties=species:S:1:pos:R:3 gdb_126782=T pbc="F F F"
C       -0.23770000       1.54780000      -0.06340000
C        0.11690000       0.06300000       0.01450000
N        0.78700000      -0.41050000      -1.18230000
N        0.11770000      -0.49090000      -2.39180000
C        1.06880000      -0.93050000      -3.18580000
O        0.84270000      -1.15860000      -4.48670000
N        2.29180000      -1.14340000      -2.61710000
C        2.05470000      -0.79880000      -1.36450000
O        2.93130000      -0.81590000      -0.35320000
H        0.66380000       2.16140000      -0.14960000
H       -0.87170000       1.73890000      -0.93220000
H       -0.77780000       1.85130000       0.83830000
H        0.78830000      -0.14150000       0.85210000
H       -0.78650000      -0.53990000       0.15050000
H        1.67330000      -1.47580000      -4.85980000
H        3.76620000      -1.14010000      -0.71290000
