20
Properties=species:S:1:pos:R:3 gdb_89645=T pbc="F F F"
O       -0.11700000       1.48470000      -0.11230000
C        0.01850000       0.09430000      -0.04730000
C        0.41060000      -0.55630000       1.33960000
C       -0.92800000      -1.30710000       1.31570000
N       -1.95610000      -0.22820000       1.22850000
C       -1.28390000      -0.71700000      -0.00720000
C       -1.25930000      -2.62930000       1.89780000
C       -0.19290000      -3.65960000       2.18610000
C       -0.88670000      -2.96100000       3.32610000
H       -0.83940000       1.69480000       0.49620000
H        0.69660000      -0.20640000      -0.84860000
H        1.28460000      -1.20590000       1.25530000
H        0.54610000       0.14660000       2.16530000
H       -2.87280000      -0.67170000       1.27340000
H       -1.86430000      -1.11740000      -0.83070000
H       -2.21240000      -3.02610000       1.55400000
H       -0.43190000      -4.69920000       1.99270000
H        0.83990000      -3.39780000       1.98590000
H       -0.32220000      -2.21860000       3.87960000
H       -1.59720000      -3.52000000       3.92460000
