16
Properties=species:S:1:pos:R:3 gdb_3217=T pbc="F F F"
C       -0.17010000       1.55990000      -0.01490000
C       -0.00600000       0.04860000      -0.02210000
C        0.72120000      -0.61490000      -1.19770000
N        2.12760000      -0.13620000      -1.14630000
C        1.70030000      -1.28000000      -0.29790000
C        1.08850000      -0.60230000       0.93630000
O        1.93440000       0.25010000       1.65450000
H        0.76590000       2.05670000      -0.28210000
H       -0.93590000       1.87450000      -0.73220000
H       -0.46930000       1.91310000       0.97680000
H       -0.96630000      -0.44780000       0.15220000
H        0.30000000      -0.96980000      -2.13070000
H        2.61750000      -0.51820000      -1.95320000
H        2.19470000      -2.24080000      -0.37450000
H        0.64550000      -1.29950000       1.65070000
H        2.46100000       0.70900000       0.98540000
