18
Properties=species:S:1:pos:R:3 gdb_65369=T pbc="F F F"
O       -0.13880000       1.37840000      -0.34360000
C       -0.00290000       0.02240000      -0.00890000
C       -0.17740000      -0.36350000       1.45150000
C       -1.28390000      -0.64410000       0.45950000
C       -2.56260000       0.12710000       0.49760000
C       -3.71600000      -0.30780000      -0.32750000
N       -3.75320000      -0.46360000       1.13900000
C        0.92260000      -0.72200000      -0.82370000
C        1.71700000      -1.32180000      -1.49940000
H        0.71450000       1.80230000      -0.19800000
H        0.40320000      -1.19140000       1.84100000
H       -0.32750000       0.46680000       2.13370000
H       -1.39210000      -1.68040000       0.14960000
H       -2.44420000       1.18740000       0.69580000
H       -4.40820000       0.42690000      -0.72860000
H       -3.59220000      -1.19440000      -0.94490000
H       -3.56460000      -1.43330000       1.38460000
H        2.40890000      -1.85390000      -2.10430000
