17
Properties=species:S:1:pos:R:3 gdb_27200=T pbc="F F F"
N        0.18080000       1.41130000       0.02630000
C       -0.00490000       0.00830000       0.00800000
C       -1.09490000      -0.83610000      -0.00990000
C       -2.55010000      -0.87220000      -0.04820000
C       -2.96110000      -2.15530000      -0.05120000
C       -1.78630000      -3.12590000      -0.01670000
C       -0.61410000      -2.18230000       0.01100000
C        0.75440000      -2.14180000       0.03410000
N        1.11010000      -0.80650000       0.03540000
H        0.05310000       1.82460000      -0.89340000
H       -0.48430000       1.85790000       0.64760000
H       -3.19980000      -0.00550000      -0.07130000
H       -3.99120000      -2.48860000      -0.07610000
H       -1.83670000      -3.78550000       0.86060000
H       -1.78920000      -3.78800000      -0.89350000
H        1.50810000      -2.91290000       0.04630000
H        2.04500000      -0.44160000       0.10110000
