18
Properties=species:S:1:pos:R:3 gdb_19080=T pbc="F F F"
C       -0.22310000       1.22240000      -0.11190000
N        0.10130000      -0.19410000       0.03290000
C        1.54640000      -0.45630000      -0.08180000
C        0.88480000      -0.47190000       1.24920000
C        1.15000000      -2.00910000       1.36290000
C        1.81100000      -1.99360000       0.03160000
N        0.53320000      -2.70250000       0.21880000
C        0.70220000      -4.15150000       0.28600000
H        0.54780000       1.91000000       0.27920000
H       -0.37130000       1.44500000      -1.17330000
H       -1.16060000       1.42650000       0.41480000
H        2.21670000       0.27340000      -0.51840000
H        0.93460000       0.24330000       2.06070000
H        1.41540000      -2.54300000       2.26670000
H        2.69630000      -2.51310000      -0.31310000
H        1.64830000      -4.48000000       0.75200000
H       -0.12640000      -4.57840000       0.85980000
H        0.66240000      -4.56010000      -0.72870000
