22
Properties=species:S:1:pos:R:3 gdb_100187=T pbc="F F F"
C        0.04360000       1.59430000      -0.05360000
N        0.02180000       0.13800000      -0.01140000
C        0.89330000      -0.35910000       1.04870000
C       -1.31140000      -0.49460000      -0.04210000
C       -2.10760000      -0.40650000       1.26910000
C       -2.12960000       0.07960000      -1.22780000
O       -3.19290000      -0.77620000      -1.60940000
C       -1.05420000      -1.96160000      -0.42660000
O       -1.37680000      -2.91690000       0.22760000
H        1.08580000       1.92410000      -0.11260000
H       -0.46670000       1.97490000      -0.94050000
H       -0.40270000       2.07520000       0.83600000
H        0.62660000       0.01080000       2.05410000
H        0.87750000      -1.45160000       1.07900000
H        1.92130000      -0.04360000       0.84190000
H       -2.23180000       0.63500000       1.58050000
H       -3.10090000      -0.85200000       1.15620000
H       -1.61520000      -0.95940000       2.07090000
H       -2.49600000       1.08640000      -0.98680000
H       -1.47650000       0.15610000      -2.10260000
H       -3.84470000      -0.79160000      -0.90170000
H       -0.49770000      -2.06290000      -1.38410000
