14
Properties=species:S:1:pos:R:3 gdb_23738=T pbc="F F F"
C       -0.02730000       1.52530000       0.02480000
C       -0.00630000       0.02260000       0.00220000
C       -0.03880000      -0.72260000      -1.17830000
N       -0.02180000      -2.05570000      -1.24810000
C        0.03020000      -2.72360000      -0.09400000
C        0.06700000      -2.10710000       1.15390000
C        0.04760000      -0.72340000       1.17670000
F        0.08110000      -0.08010000       2.34650000
H        0.86580000       1.92980000       0.51260000
H       -0.07270000       1.92610000      -0.99070000
H       -0.89100000       1.90420000       0.58130000
H       -0.08140000      -0.19400000      -2.12910000
H        0.04360000      -3.80840000      -0.16200000
H        0.10900000      -2.67340000       2.07610000
