18
Properties=species:S:1:pos:R:3 gdb_83059=T pbc="F F F"
C       -0.16540000       1.44930000       0.14940000
N        0.08350000       0.03250000      -0.05910000
C        0.68970000      -0.46770000      -1.27530000
C        1.47960000       0.46550000      -2.19500000
C        2.62210000       0.94860000      -1.32850000
C        2.61540000       0.37160000      -0.12520000
C        1.44430000      -0.54980000       0.04400000
C        1.58270000      -1.73030000       0.85010000
C        1.73590000      -2.70900000       1.53180000
H        0.63270000       2.12190000      -0.19280000
H       -1.09020000       1.71130000      -0.37490000
H       -0.32340000       1.62040000       1.21850000
H        0.20640000      -1.34110000      -1.70330000
H        1.84000000      -0.07890000      -3.07620000
H        0.86760000       1.29480000      -2.57380000
H        3.32900000       1.70130000      -1.65960000
H        3.32940000       0.54140000       0.67100000
H        1.85650000      -3.57650000       2.13180000
