15
Properties=species:S:1:pos:R:3 gdb_46593=T pbc="F F F"
O        0.01730000       0.01040000      -0.05250000
C        0.01400000       1.21080000      -0.03390000
C       -1.26230000       2.10110000      -0.16240000
O       -0.85220000       3.38910000      -0.64580000
C        0.53630000       3.46190000      -0.53240000
C        1.17060000       3.41830000       0.81800000
C        1.15350000       2.17450000      -0.05550000
O        2.19340000       2.20590000      -1.04300000
C        1.55580000       3.36590000      -1.67170000
H       -1.95120000       1.64330000      -0.87810000
H       -1.77840000       2.18910000       0.80340000
H        2.14700000       3.85930000       0.98890000
H        0.48950000       3.44050000       1.66060000
H        1.09180000       3.09120000      -2.62420000
H        2.25690000       4.19480000      -1.80800000
