17
Properties=species:S:1:pos:R:3 gdb_38674=T pbc="F F F"
C       -0.03360000       1.46510000       0.10360000
N        1.26600000       0.79190000      -0.09690000
C        1.63200000       0.20000000       1.24120000
C        0.37510000      -0.71940000       1.24810000
N        0.70860000      -2.11520000       1.05300000
C        0.53330000      -2.62830000      -0.09200000
O        0.02600000      -2.10310000      -1.23270000
C       -0.57740000      -0.79790000      -1.16720000
C       -0.03240000       0.00170000      -0.03470000
H       -0.25890000       1.91570000       1.06910000
H       -0.33650000       2.06080000      -0.75330000
H        2.56070000      -0.36720000       1.17000000
H        1.70800000       0.94210000       2.04230000
H       -0.29580000      -0.62980000       2.10890000
H        0.81810000      -3.66300000      -0.27510000
H       -0.38850000      -0.32030000      -2.13250000
H       -1.66040000      -0.93850000      -1.04990000
