19
Properties=species:S:1:pos:R:3 gdb_32797=T pbc="F F F"
C       -0.26480000       1.53410000      -0.03410000
C       -0.77160000       0.16690000      -0.48170000
N       -0.97160000      -0.71150000       0.67250000
C       -1.42900000      -2.01250000       0.42630000
C       -2.57210000      -2.41450000      -0.23430000
N       -3.65930000      -1.76180000      -0.85110000
N       -2.55890000      -3.80070000      -0.13410000
C       -1.45680000      -4.15350000       0.56770000
N       -0.74750000      -3.09940000       0.91940000
H       -0.13910000       2.20130000      -0.89190000
H       -0.96390000       1.99460000       0.66990000
H        0.70750000       1.44850000       0.46460000
H       -1.73450000       0.28240000      -0.99230000
H       -0.07640000      -0.26890000      -1.21970000
H       -0.12670000      -0.77520000       1.22950000
H       -4.00920000      -1.00330000      -0.27550000
H       -3.42700000      -1.37480000      -1.76070000
H       -3.27950000      -4.39980000      -0.50060000
H       -1.20800000      -5.18070000       0.78770000
