14
Properties=species:S:1:pos:R:3 gdb_50127=T pbc="F F F"
O       -0.24460000       0.15200000      -0.48390000
C       -0.01560000       1.21930000       0.01890000
C        1.30240000       1.95420000      -0.08960000
O        2.40660000       1.16500000      -0.58310000
C        2.62070000       2.09040000      -1.65180000
C        1.42860000       2.14220000      -2.56340000
C        1.40680000       2.93150000      -1.27670000
C        3.95550000       2.45890000      -1.99740000
N        5.03100000       2.76810000      -2.29010000
H       -0.79120000       1.78610000       0.58380000
H        1.55930000       2.42530000       0.86740000
H        1.54720000       2.74560000      -3.45680000
H        0.83940000       1.23690000      -2.66880000
H        1.30460000       4.00590000      -1.22850000
