14
Properties=species:S:1:pos:R:3 gdb_14332=T pbc="F F F"
O        0.08780000       0.04610000       0.27490000
C       -0.01580000       1.21340000       0.05240000
C       -1.27180000       2.08440000       0.11100000
C       -0.76300000       3.49950000      -0.06880000
O       -0.37130000       4.13220000       1.17060000
C        1.01670000       4.19060000       0.76330000
C        0.72030000       3.34860000      -0.48530000
O        1.05650000       1.97430000      -0.34000000
H       -1.95020000       1.77180000      -0.68930000
H       -1.78350000       1.94250000       1.06480000
H       -1.40220000       4.14830000      -0.67410000
H        1.33700000       5.21820000       0.55250000
H        1.69070000       3.72970000       1.49190000
H        1.07150000       3.70140000      -1.45480000
