20
Properties=species:S:1:pos:R:3 gdb_93249=T pbc="F F F"
C       -0.00020000       1.55820000       0.01000000
C        0.01930000       0.02910000       0.00540000
C        0.73760000      -0.53990000      -1.20830000
O        0.67140000      -1.96520000      -1.21840000
C        0.95110000      -2.66710000      -0.08530000
O        1.11580000      -3.86150000      -0.16300000
N        1.01080000      -1.95650000       1.09020000
C        1.40000000      -2.65820000       2.30070000
C        0.71540000      -0.53870000       1.23960000
H        1.01570000       1.96850000      -0.01370000
H       -0.53970000       1.94640000      -0.85920000
H       -0.49400000       1.94280000       0.90780000
H       -1.01100000      -0.34770000      -0.01990000
H        0.27540000      -0.21980000      -2.14580000
H        1.78930000      -0.21710000      -1.22010000
H        1.61960000      -3.69260000       2.04430000
H        2.28840000      -2.19310000       2.74750000
H        0.59160000      -2.63230000       3.04280000
H        1.64700000       0.01940000       1.43090000
H        0.08430000      -0.40470000       2.12850000
