23
Properties=species:S:1:pos:R:3 gdb_123048=T pbc="F F F"
C       -0.30240000       1.47770000      -0.38110000
C       -0.34200000      -0.03690000      -0.59830000
C        1.00570000      -0.59650000      -1.03200000
O        0.88710000      -1.99360000      -1.20470000
C        2.08530000      -2.61410000      -1.60860000
C        1.81640000      -4.10190000      -1.74150000
C        1.03000000      -4.57930000      -2.98060000
C        2.31930000      -5.35470000      -3.31890000
O        3.00260000      -4.80960000      -2.16790000
H        0.42090000       1.75110000       0.39510000
H       -0.01900000       2.00590000      -1.29820000
H       -1.28050000       1.85580000      -0.07020000
H       -0.64940000      -0.54580000       0.32240000
H       -1.08700000      -0.29310000      -1.36040000
H        1.33370000      -0.12180000      -1.97350000
H        1.77700000      -0.37040000      -0.27510000
H        2.43840000      -2.21170000      -2.57350000
H        2.89020000      -2.45230000      -0.87170000
H        1.43680000      -4.48830000      -0.78660000
H        0.14650000      -5.18560000      -2.77920000
H        0.76680000      -3.78220000      -3.67830000
H        2.23910000      -6.44740000      -3.26290000
H        2.82070000      -5.08580000      -4.25620000
