20
Properties=species:S:1:pos:R:3 gdb_23381=T pbc="F F F"
C        0.25000000       1.46350000       0.02290000
C        0.03260000      -0.02340000       0.13340000
N       -0.14850000      -0.63570000       1.24190000
O       -0.10030000       0.24950000       2.33460000
C       -0.01620000      -0.83520000      -1.12440000
C        1.29720000      -1.17600000      -1.92290000
C        1.62570000      -2.22600000      -0.82440000
C        0.10160000      -2.38690000      -1.11600000
C        0.46550000      -2.28500000      -2.62740000
H        1.20320000       1.74550000       0.48340000
H        0.25790000       1.78470000      -1.02070000
H       -0.53010000       2.00640000       0.56470000
H       -0.27270000      -0.33930000       3.07660000
H       -0.81200000      -0.44100000      -1.77120000
H        1.98020000      -0.46490000      -2.39090000
H        2.26450000      -3.05700000      -1.13550000
H        1.90090000      -1.85550000       0.16240000
H       -0.58950000      -3.08590000      -0.64610000
H       -0.32600000      -1.95520000      -3.30680000
H        1.03280000      -3.11990000      -3.04640000
