18
Properties=species:S:1:pos:R:3 gdb_56701=T pbc="F F F"
C        0.17600000       1.42100000       0.28400000
C       -0.04270000      -0.07120000      -0.02700000
C       -1.47590000      -0.37780000      -0.13860000
N       -2.60360000      -0.61870000      -0.21160000
C        0.71390000      -0.53290000      -1.28350000
C        2.15100000      -0.99690000      -1.08680000
C        1.07980000      -2.00450000      -1.38630000
C        0.38880000       0.16830000      -2.49660000
C        0.10950000       0.76250000      -3.50420000
H        1.24330000       1.61250000       0.42370000
H       -0.18220000       2.03890000      -0.54220000
H       -0.35560000       1.70990000       1.19360000
H        0.33800000      -0.66450000       0.81390000
H        2.86020000      -0.75050000      -1.86730000
H        2.55190000      -0.95150000      -0.07960000
H        0.73900000      -2.65280000      -0.58620000
H        1.05330000      -2.45110000      -2.37230000
H       -0.14600000       1.27830000      -4.39650000
