18
Properties=species:S:1:pos:R:3 gdb_75220=T pbc="F F F"
C        0.01460000       1.50570000       0.07630000
C       -0.01290000       0.01300000      -0.00860000
C        0.03420000      -0.75280000      -1.10360000
C       -0.02170000      -2.23360000      -0.80160000
C       -0.05750000      -2.27520000       0.73070000
N        1.16440000      -1.69110000       1.35580000
C       -0.05160000      -0.85330000       1.21260000
C       -0.75330000      -3.32200000       1.41310000
C       -1.32550000      -4.22160000       1.97180000
H        0.89710000       1.85420000       0.62720000
H        0.03020000       1.96250000      -0.91680000
H       -0.86250000       1.89030000       0.61240000
H        0.13140000      -0.37530000      -2.11590000
H       -0.91580000      -2.70830000      -1.22390000
H        0.84800000      -2.77500000      -1.19080000
H        1.20870000      -2.04040000       2.31300000
H       -0.58430000      -0.54850000       2.10800000
H       -1.83380000      -5.01060000       2.46800000
