19
Properties=species:S:1:pos:R:3 gdb_47489=T pbc="F F F"
O        0.00270000       0.00010000       0.43460000
C       -0.02340000       1.11580000      -0.00810000
C       -1.31300000       1.92680000      -0.10500000
C       -1.26170000       3.10920000      -1.05110000
C       -1.84120000       2.96890000      -2.43960000
C       -2.53550000       3.82450000      -1.40330000
C        0.03310000       3.87140000      -0.87320000
C        1.19610000       2.92280000      -1.13160000
O        1.14390000       1.71510000      -0.35100000
H       -2.11490000       1.22600000      -0.34950000
H       -1.51100000       2.27670000       0.91850000
H       -1.33980000       3.47110000      -3.26070000
H       -2.30020000       2.02470000      -2.71280000
H       -3.46330000       3.45650000      -0.97710000
H       -2.49980000       4.90220000      -1.52470000
H        0.10380000       4.71540000      -1.56770000
H        0.09980000       4.27740000       0.14470000
H        1.21920000       2.63660000      -2.19070000
H        2.15700000       3.38010000      -0.88270000
