21
Properties=species:S:1:pos:R:3 gdb_95204=T pbc="F F F"
C       -0.14980000       1.53480000      -0.01590000
C        0.04660000       0.01390000       0.01390000
C        0.73180000      -0.47850000      -1.24620000
O        2.16350000      -0.30550000      -1.29770000
C        1.63070000      -1.64550000      -1.23170000
C        1.91530000      -2.41450000       0.04530000
C        1.03360000      -1.97630000       1.23010000
C        0.81110000      -0.45620000       1.27580000
O        2.02510000       0.25510000       1.46850000
H        0.81370000       2.04950000      -0.01530000
H       -0.70810000       1.84250000      -0.90630000
H       -0.70640000       1.86920000       0.86510000
H       -0.94340000      -0.46470000       0.03820000
H        0.23480000      -0.22190000      -2.18330000
H        1.77020000      -2.19370000      -2.16320000
H        1.77710000      -3.48390000      -0.14560000
H        2.97600000      -2.28120000       0.28780000
H        0.05330000      -2.46490000       1.15820000
H        1.48700000      -2.30320000       2.17050000
H        0.19460000      -0.22040000       2.15160000
H        2.49120000       0.23060000       0.62050000
