16
Properties=species:S:1:pos:R:3 gdb_23482=T pbc="F F F"
O       -0.17260000       1.36350000      -0.07420000
N        0.01260000      -0.02930000      -0.01930000
C       -1.09250000      -0.63830000       0.09050000
C       -1.37960000      -2.12280000       0.05100000
C       -1.95000000      -2.63420000       1.41250000
C       -3.28310000      -1.90950000       1.11570000
O       -3.19040000      -0.48370000       1.34720000
C       -2.56960000      -0.26850000       0.05400000
C       -2.86390000      -1.74150000      -0.37140000
H        0.73060000       1.68310000      -0.17410000
H       -0.70250000      -2.76630000      -0.50790000
H       -2.09020000      -3.71970000       1.37530000
H       -1.42290000      -2.36160000       2.32960000
H       -4.21850000      -2.32070000       1.49830000
H       -2.89430000       0.65370000      -0.42570000
H       -3.38610000      -2.06620000      -1.26580000
