16
Properties=species:S:1:pos:R:3 gdb_84263=T pbc="F F F"
C       -0.10370000       1.56270000      -0.07650000
C        0.07110000       0.05130000      -0.01670000
N        0.94520000      -0.44930000      -1.11650000
C        1.58190000      -1.40250000      -0.58630000
O        2.78890000      -1.99780000      -0.82960000
C        2.95900000      -2.14690000       0.63980000
C        1.47140000      -1.74490000       0.85300000
C        0.78620000      -0.43170000       1.30520000
O        0.79560000       0.12170000       2.36400000
H        0.86950000       2.06080000      -0.09180000
H       -0.64800000       1.84450000      -0.98060000
H       -0.65770000       1.91120000       0.79890000
H       -0.91660000      -0.43290000      -0.05090000
H        3.22170000      -3.17220000       0.90110000
H        3.70660000      -1.43640000       0.99750000
H        0.83340000      -2.59290000       1.11490000
