13
Properties=species:S:1:pos:R:3 gdb_33522=T pbc="F F F"
C       -0.13090000      -1.29230000      -0.11090000
C       -0.05530000      -0.09590000      -0.05470000
C        0.01030000       1.35470000       0.06070000
C       -0.50430000       1.89880000       1.45980000
N        0.65050000       2.57750000       2.03970000
C        1.59520000       2.46260000       1.21060000
O        1.39760000       1.79560000       0.03800000
C       -0.68800000       1.99860000      -1.06580000
N       -1.26350000       2.51800000      -1.92160000
H       -0.19340000      -2.35140000      -0.17460000
H       -1.33930000       2.59200000       1.33350000
H       -0.82940000       1.07230000       2.09550000
H        2.60000000       2.85080000       1.32830000
