25
Properties=species:S:1:pos:R:3 gdb_121856=T pbc="F F F"
C        0.10590000       1.56010000       0.08760000
C        0.03320000       0.03140000       0.04780000
C       -1.40190000      -0.50260000      -0.03370000
C       -1.46550000      -2.03320000      -0.07360000
C       -2.89840000      -2.62080000      -0.04980000
C       -3.72050000      -2.24510000      -1.29990000
C       -2.85000000      -4.07500000       0.11360000
C       -2.79340000      -5.27300000       0.22730000
C       -2.73200000      -6.72080000       0.37500000
H        1.14130000       1.91030000       0.14580000
H       -0.34480000       2.00160000      -0.80830000
H       -0.42970000       1.95950000       0.95620000
H        0.60620000      -0.34110000      -0.81170000
H        0.52280000      -0.38320000       0.93890000
H       -1.97340000      -0.13600000       0.83120000
H       -1.88840000      -0.07830000      -0.92120000
H       -0.94880000      -2.40610000      -0.96760000
H       -0.91750000      -2.43770000       0.78560000
H       -3.41170000      -2.19820000       0.82700000
H       -3.84240000      -1.16150000      -1.38280000
H       -3.22630000      -2.60760000      -2.20700000
H       -4.71510000      -2.69670000      -1.25600000
H       -3.73450000      -7.15970000       0.43300000
H       -2.21700000      -7.18770000      -0.47230000
H       -2.19390000      -7.00730000       1.28560000
