18
Properties=species:S:1:pos:R:3 gdb_37334=T pbc="F F F"
C       -0.01890000       1.52860000       0.13860000
C        1.30250000       0.81340000      -0.01940000
C        0.00230000       0.02530000      -0.01060000
C        0.03110000      -0.64130000      -1.41180000
O        1.43470000      -0.88880000      -1.59240000
C        1.86620000       0.47110000      -1.42430000
C        1.03160000       1.19860000      -2.48780000
N        0.67820000       0.33610000      -3.63590000
C       -0.23840000       0.42870000      -2.47920000
H       -0.23940000       1.90340000       1.13400000
H       -0.40420000       2.15520000      -0.65410000
H        1.98610000       0.77470000       0.82020000
H       -0.27120000      -0.59360000       0.83560000
H       -0.51970000      -1.57740000      -1.49260000
H        2.95010000       0.52590000      -1.51620000
H        1.07290000       2.27610000      -2.59390000
H        0.30730000       0.93980000      -4.36800000
H       -1.21390000       0.88990000      -2.57840000
