19
Properties=species:S:1:pos:R:3 gdb_99376=T pbc="F F F"
C       -0.05120000       1.42140000       0.21970000
C        0.16690000      -0.07290000      -0.00400000
C        0.81060000      -0.37760000      -1.34030000
O        1.14090000       0.43300000      -2.16790000
O        0.97730000      -1.71190000      -1.49930000
C        1.57450000      -2.11700000      -2.74010000
C        1.67410000      -3.63880000      -2.71840000
C        2.48270000      -4.16680000      -3.88480000
O        2.11050000      -5.02000000      -4.64640000
H        0.89600000       1.96520000       0.18340000
H       -0.69920000       1.84250000      -0.55300000
H       -0.51470000       1.59760000       1.19410000
H        0.80130000      -0.50870000       0.77720000
H       -0.77620000      -0.62990000       0.04520000
H        0.95940000      -1.76230000      -3.57300000
H        2.55990000      -1.64820000      -2.83860000
H        2.19390000      -3.93540000      -1.79640000
H        0.68750000      -4.10770000      -2.72310000
H        3.49210000      -3.70430000      -3.99130000
