16
Properties=species:S:1:pos:R:3 gdb_4339=T pbc="F F F"
C       -0.07380000       1.51410000       0.03950000
C       -0.03660000       0.01210000      -0.01760000
C        0.05330000      -0.68580000      -1.22060000
C        0.08170000      -2.07850000      -1.17580000
C        0.17730000      -2.92080000      -2.41750000
N        0.02400000      -2.72950000      -0.00460000
C       -0.06040000      -1.97010000       1.08600000
N       -0.09430000      -0.64060000       1.15270000
H       -0.02280000       1.96080000      -0.95600000
H       -0.99220000       1.84880000       0.53210000
H        0.76170000       1.88810000       0.63960000
H        0.10000000      -0.15870000      -2.16720000
H        1.07000000      -3.55280000      -2.37510000
H       -0.68400000      -3.59320000      -2.48270000
H        0.21880000      -2.30960000      -3.32190000
H       -0.10720000      -2.49910000       2.03600000
