18
Properties=species:S:1:pos:R:3 gdb_123728=T pbc="F F F"
C        0.01460000       1.66370000       0.02400000
C        1.53420000       1.51560000       0.29540000
C        1.29770000      -0.01420000       0.53660000
C       -0.04950000       0.13400000      -0.22900000
C        2.30420000      -0.99760000       0.05830000
C        2.57990000      -1.55930000      -1.17100000
N        3.65280000      -2.39160000      -1.05890000
N        4.06950000      -2.38530000       0.17350000
N        3.26010000      -1.54700000       0.85200000
H       -0.53280000       1.94810000       0.92710000
H       -0.29150000       2.32390000      -0.78960000
H        2.12710000       1.67500000      -0.60920000
H        1.97540000       2.09090000       1.11260000
H        1.09690000      -0.18250000       1.60070000
H       -0.90630000      -0.42320000       0.15560000
H        0.07130000      -0.10130000      -1.28990000
H        2.07400000      -1.42030000      -2.11240000
H        3.41650000      -1.40360000       1.83730000
