17
Properties=species:S:1:pos:R:3 gdb_10972=T pbc="F F F"
C        0.03340000       1.54800000       0.05730000
C        0.02210000       0.04460000       0.03080000
C        0.54190000      -0.71280000      -1.22410000
C        0.39150000      -2.18970000      -0.71810000
C       -0.17530000      -1.89760000       0.69460000
N        0.61750000      -0.72250000       1.18850000
C       -1.22430000      -0.81900000       0.35100000
O       -2.40570000      -0.67680000       0.38890000
H        1.04510000       1.94100000      -0.09330000
H       -0.60130000       1.94490000      -0.74140000
H       -0.34250000       1.92030000       1.01360000
H       -0.05130000      -0.50470000      -2.11940000
H        1.58010000      -0.44080000      -1.43990000
H       -0.28490000      -2.78870000      -1.33450000
H        1.34850000      -2.71620000      -0.65970000
H       -0.35770000      -2.72310000       1.38000000
H        1.62270000      -0.86570000       1.07710000
