17
Properties=species:S:1:pos:R:3 gdb_2600=T pbc="F F F"
C        0.22270000       1.46080000       0.32140000
C       -0.17510000       0.05140000      -0.13440000
C        0.64490000      -0.46200000      -1.30480000
C        2.06600000      -0.96510000      -1.07170000
C        0.99410000      -1.94770000      -1.39670000
C        0.41070000       0.18140000      -2.62080000
O       -0.40130000       1.04820000      -2.83680000
H        1.27550000       1.49800000       0.62180000
H        0.07040000       2.18390000      -0.48300000
H       -0.38080000       1.77450000       1.17870000
H       -0.07280000      -0.65080000       0.70150000
H       -1.23190000       0.04710000      -0.42350000
H        2.81550000      -0.74940000      -1.82620000
H        2.42820000      -0.90730000      -0.05130000
H        0.60170000      -2.57680000      -0.60580000
H        0.99840000      -2.41030000      -2.37820000
H        1.05700000      -0.21490000      -3.44100000
