14
Properties=species:S:1:pos:R:3 gdb_62423=T pbc="F F F"
O       -0.13870000       1.43530000       0.13010000
C       -0.04780000       0.03680000       0.03780000
C        0.89200000      -0.52180000       1.01850000
N        1.65240000      -0.94910000       1.77710000
C       -1.40210000      -0.68580000       0.02910000
C       -2.19860000      -0.21430000      -1.13060000
C       -1.13110000      -1.27430000      -1.38610000
C        0.20320000      -0.61270000      -1.39730000
O        1.16710000      -0.62920000      -2.10080000
H        0.72660000       1.80820000      -0.07900000
H       -1.81690000      -1.20430000       0.88160000
H       -3.21130000      -0.59720000      -1.19230000
H       -2.07060000       0.79500000      -1.50320000
H       -1.37630000      -2.24290000      -1.80070000
