15
Properties=species:S:1:pos:R:3 gdb_11880=T pbc="F F F"
O        0.03020000      -0.03360000       0.06070000
C       -0.02610000       1.17450000       0.08460000
C       -1.28750000       2.04690000       0.09950000
C       -0.77280000       3.45430000       0.34110000
C       -1.58330000       4.67120000       0.31000000
O       -1.16670000       4.09890000       1.55460000
C        0.72910000       3.44420000       0.03700000
N        1.04550000       2.02980000       0.08670000
H       -1.79260000       1.94390000      -0.86690000
H       -1.97920000       1.72480000       0.87990000
H       -1.12160000       5.62560000       0.05650000
H       -2.64920000       4.60380000       0.09500000
H        0.94650000       3.87920000      -0.94910000
H        1.26690000       4.02100000       0.79640000
H        1.98090000       1.66590000      -0.00130000
