14
Properties=species:S:1:pos:R:3 gdb_5666=T pbc="F F F"
C       -0.07620000       1.47680000       0.01080000
C        1.39490000       1.88600000      -0.00130000
C        2.20600000       0.80760000      -0.01490000
C        1.38010000      -0.40310000      -0.01310000
C        0.07760000      -0.00530000       0.00160000
O       -0.77460000      -1.04860000       0.00450000
C        0.02670000      -2.16650000      -0.00900000
C        1.35050000      -1.83570000      -0.02020000
H       -0.59710000       1.85860000       0.89860000
H       -0.61420000       1.86780000      -0.86250000
H        1.70660000       2.92170000       0.00120000
H        3.28800000       0.83170000      -0.02530000
H       -0.49960000      -3.10640000      -0.00870000
H        2.17260000      -2.53440000      -0.03180000
