19
Properties=species:S:1:pos:R:3 gdb_26658=T pbc="F F F"
C       -0.08010000       1.51570000       0.11140000
C       -0.00200000       0.03270000      -0.03400000
C       -0.02150000      -0.79100000      -1.13700000
C       -0.13400000      -0.39350000      -2.57640000
C        0.08780000      -2.14720000      -0.66040000
N        0.11950000      -3.40260000      -1.34130000
C        0.16850000      -2.08400000       0.70630000
O        0.28310000      -3.07680000       1.61510000
N        0.11540000      -0.78060000       1.09370000
H        0.81180000       1.93580000       0.59620000
H       -0.16810000       1.98980000      -0.86850000
H       -0.94880000       1.83250000       0.70450000
H        0.73260000      -0.72750000      -3.16170000
H       -1.02090000      -0.83100000      -3.05320000
H       -0.20530000       0.69100000      -2.69450000
H        0.89980000      -3.46450000      -1.98910000
H       -0.72250000      -3.56040000      -1.88780000
H        0.29830000      -3.88790000       1.08500000
H        0.15680000      -0.46510000       2.04680000
