19
Properties=species:S:1:pos:R:3 gdb_107976=T pbc="F F F"
C       -0.05690000       1.57180000      -0.04670000
C       -0.00710000       0.03910000      -0.07970000
C        0.73150000      -0.49120000      -1.26590000
O        0.26420000      -0.17820000      -2.61900000
C        1.44030000      -0.99310000      -2.87420000
C        2.24700000      -0.44820000      -1.66430000
O        2.54560000      -1.76050000      -1.11380000
C        1.19940000      -1.94610000      -1.65560000
C        0.51940000      -3.26890000      -1.54610000
H        0.94940000       1.99660000       0.02630000
H       -0.52050000       1.96200000      -0.95660000
H       -0.63440000       1.92360000       0.81270000
H        0.48620000      -0.35350000       0.81800000
H       -1.02430000      -0.37180000      -0.09030000
H        1.73130000      -1.19630000      -3.90460000
H        2.99550000       0.34010000      -1.59150000
H        0.39450000      -3.55640000      -0.49770000
H       -0.46810000      -3.21030000      -2.01410000
H        1.10050000      -4.04660000      -2.05100000
