14
Properties=species:S:1:pos:R:3 gdb_5752=T pbc="F F F"
O        0.34320000       1.34340000       0.31220000
C        0.09290000      -0.01110000       0.06750000
C       -1.42070000      -0.49980000       0.06500000
N       -1.17530000      -0.94540000      -1.32550000
C       -1.46980000      -1.55960000      -2.49820000
N       -0.41010000      -1.52510000      -3.29290000
C        0.60370000      -0.89180000      -2.60700000
C        0.12610000      -0.52700000      -1.36990000
H        0.00790000       1.84940000      -0.43670000
H        0.71220000      -0.56720000       0.77570000
H       -1.67130000      -1.31200000       0.75150000
H       -2.15090000       0.30900000       0.14690000
H       -2.42630000      -1.99590000      -2.73890000
H        1.57490000      -0.74590000      -3.05230000
