18
Properties=species:S:1:pos:R:3 gdb_90688=T pbc="F F F"
C        0.25230000       1.29060000      -0.52550000
C        0.17570000      -0.17640000      -0.16130000
O        1.35740000      -0.90290000      -0.65770000
C        1.78030000      -1.14910000       0.69100000
C        0.54820000      -0.51760000       1.28060000
C        0.81150000      -2.01440000       1.44660000
C       -0.03510000      -3.15180000       0.92060000
N       -0.11270000      -3.27270000      -0.43430000
O       -0.60380000      -3.90390000       1.69020000
H        1.16680000       1.74390000      -0.13220000
H        0.24260000       1.41160000      -1.61260000
H       -0.60990000       1.82540000      -0.11230000
H       -0.74170000      -0.63540000      -0.54510000
H        2.83970000      -1.06880000       0.90550000
H        0.42270000       0.13870000       2.13110000
H        1.14040000      -2.23530000       2.45800000
H        0.47110000      -2.70440000      -1.03100000
H       -0.60300000      -4.07260000      -0.79960000
