20
Properties=species:S:1:pos:R:3 gdb_106390=T pbc="F F F"
C       -0.11920000       1.34990000      -0.06000000
O        0.01960000      -0.05300000       0.03920000
C        0.65900000      -0.51440000       1.17810000
C        2.10430000      -0.10810000       1.67620000
N        1.64840000      -0.73370000       2.98910000
C        0.28580000      -0.16590000       2.64340000
C        1.54450000      -2.15380000       2.52230000
C        0.21490000      -2.83180000       2.33830000
C        0.82090000      -2.04740000       1.19870000
H        0.85410000       1.86020000      -0.06330000
H       -0.62350000       1.55100000      -1.00770000
H       -0.72790000       1.76280000       0.75630000
H        2.96870000      -0.59120000       1.21450000
H        2.27590000       0.96400000       1.80210000
H        0.29380000       0.90520000       2.85220000
H       -0.57320000      -0.61930000       3.13590000
H        2.44080000      -2.73880000       2.68780000
H        0.28210000      -3.91100000       2.23370000
H       -0.68680000      -2.51400000       2.84670000
H        1.12770000      -2.53130000       0.27950000
