16
Properties=species:S:1:pos:R:3 gdb_53817=T pbc="F F F"
N        0.12090000       1.31610000      -0.11800000
C        0.11510000      -0.02790000      -0.00090000
O        1.09120000      -0.75030000       0.09260000
C       -1.31540000      -0.61170000       0.01440000
O       -2.28480000       0.10640000      -0.03300000
C       -1.36520000      -2.12020000       0.11860000
C       -1.10370000      -2.69390000       1.53800000
C       -2.54250000      -3.23530000       1.40580000
O       -2.69440000      -2.64710000       0.09380000
H        0.99110000       1.82040000      -0.13320000
H       -0.76110000       1.79990000      -0.17660000
H       -0.72360000      -2.54850000      -0.66120000
H       -0.30740000      -3.43500000       1.58740000
H       -0.95190000      -1.94950000       2.32080000
H       -2.63600000      -4.32690000       1.37310000
H       -3.27220000      -2.83240000       2.11700000
