13
Properties=species:S:1:pos:R:3 gdb_123695=T pbc="F F F"
C       -0.06150000       1.52000000       0.00720000
C        1.43300000       1.89320000      -0.03950000
O        2.16940000       1.47300000       1.10520000
C        2.29670000       0.68140000      -0.09100000
C        1.35060000      -0.45580000      -0.05750000
N        1.36080000      -1.75150000      -0.07810000
O        0.02610000      -2.10080000       0.02190000
N       -0.79820000      -0.98800000       0.10170000
C        0.01460000       0.01930000       0.04540000
H       -0.54860000       1.95030000       0.88670000
H       -0.58850000       1.88140000      -0.88170000
H        1.73990000       2.84190000      -0.47070000
H        3.27930000       0.63960000      -0.54560000
