16
Properties=species:S:1:pos:R:3 gdb_98956=T pbc="F F F"
C        0.24360000       1.56270000       0.11360000
N        0.14480000       0.12410000      -0.00700000
C        0.44010000      -0.67960000       1.04120000
N        0.81480000      -0.22420000       2.17690000
N        0.29730000      -2.07220000       0.77020000
C       -0.08570000      -2.69490000      -0.37170000
O       -0.39770000      -2.18760000      -1.43760000
C       -0.10360000      -4.22100000      -0.22460000
O        0.19130000      -4.78850000       0.79440000
H        1.26340000       1.87100000       0.36810000
H       -0.03810000       2.01010000      -0.84140000
H       -0.42030000       1.94180000       0.89790000
H       -0.14210000      -0.31150000      -0.87030000
H        0.99400000      -0.96600000       2.84810000
H        0.51010000      -2.70120000       1.53470000
H       -0.41540000      -4.73690000      -1.15250000
