19
Properties=species:S:1:pos:R:3 gdb_119445=T pbc="F F F"
C        0.10820000       1.40150000       0.02070000
O        0.18730000      -0.00400000       0.06180000
C        0.54770000      -0.56780000      -1.18280000
C        0.53550000      -2.05700000      -1.05090000
C        1.68360000      -2.85920000      -0.55650000
C        1.22120000      -3.08780000      -1.99390000
C       -0.04840000      -3.88630000      -1.98390000
O       -0.45080000      -4.80520000      -2.63890000
C       -0.73730000      -2.92110000      -0.98160000
H        1.07570000       1.85840000      -0.24210000
H       -0.64220000       1.74790000      -0.70770000
H       -0.18330000       1.74130000       1.01720000
H       -0.16170000      -0.24710000      -1.96560000
H        1.54950000      -0.22180000      -1.49160000
H        2.63670000      -2.34420000      -0.48550000
H        1.53780000      -3.63140000       0.19330000
H        1.89460000      -2.94290000      -2.83020000
H       -1.01890000      -3.30880000       0.00100000
H       -1.61290000      -2.46130000      -1.45030000
