20
Properties=species:S:1:pos:R:3 gdb_122083=T pbc="F F F"
C       -0.23530000       1.37230000      -0.01170000
C        0.15210000      -0.10880000       0.00290000
C        0.66970000      -0.57820000      -1.34810000
O        1.01170000      -1.95890000      -1.24290000
C        1.53070000      -2.54560000      -2.41460000
C        1.95610000      -3.96820000      -2.02040000
O        0.87730000      -4.70550000      -1.50640000
C        0.52890000      -2.56170000      -3.50510000
N       -0.24530000      -2.54630000      -4.36240000
H        0.62120000       2.00720000      -0.26340000
H       -1.02380000       1.57110000      -0.74520000
H       -0.60530000       1.68750000       0.96770000
H        0.92390000      -0.29370000       0.75880000
H       -0.71220000      -0.72430000       0.27740000
H       -0.09360000      -0.43900000      -2.12730000
H        1.56030000      -0.00200000      -1.64690000
H        2.40930000      -1.98830000      -2.77910000
H        2.33150000      -4.50020000      -2.89900000
H        2.77780000      -3.86780000      -1.29480000
H        0.48020000      -4.16470000      -0.81320000
