18
Properties=species:S:1:pos:R:3 gdb_35473=T pbc="F F F"
N        0.06640000      -1.18990000       0.12980000
C        0.03580000      -0.03660000       0.06150000
C       -0.00980000       1.42590000      -0.01110000
C       -0.80450000       2.00630000       1.19150000
C       -0.73550000       3.53020000       1.22460000
C        0.16500000       4.21870000       2.22300000
C        0.54550000       4.18110000       0.75640000
C        1.62280000       3.28360000       0.27380000
C        1.38960000       2.02180000      -0.08460000
H       -0.54820000       1.67620000      -0.93710000
H       -1.84380000       1.67080000       1.13650000
H       -0.38420000       1.57970000       2.10710000
H       -1.65820000       4.04220000       0.97260000
H       -0.15450000       5.16710000       2.64100000
H        0.72830000       3.58930000       2.90420000
H        0.45930000       5.12570000       0.22570000
H        2.62950000       3.68830000       0.20400000
H        2.18630000       1.38060000      -0.44610000
