18
Properties=species:S:1:pos:R:3 gdb_37682=T pbc="F F F"
C       -0.04630000       1.56250000       0.20730000
C        1.51190000       1.48240000      -0.07930000
C        2.19400000       0.32650000       0.79050000
C        2.17650000      -0.71040000      -0.41190000
C        1.22300000       0.30110000      -1.02840000
C        0.06660000       0.01930000      -0.01860000
C       -0.18190000      -1.50530000      -0.25180000
N        1.22800000      -1.70180000       0.32380000
C        0.95670000      -0.46500000       1.15220000
H       -0.41670000       1.89840000       1.18040000
H       -0.53390000       2.12640000      -0.59310000
H        2.08910000       2.36690000      -0.34580000
H        3.02850000       0.48900000       1.46820000
H        3.04290000      -1.13880000      -0.91050000
H        0.94320000       0.39520000      -2.07700000
H       -0.88000000      -1.99040000       0.43470000
H       -0.34980000      -1.84860000      -1.27690000
H        0.50380000      -0.57830000       2.13830000
