16
Properties=species:S:1:pos:R:3 gdb_82653=T pbc="F F F"
O        0.07990000       1.44960000       0.06610000
C        0.04300000       0.05400000       0.02240000
C        0.27420000      -0.71110000       1.36010000
N       -0.73990000      -0.03400000       2.24040000
C       -1.76170000      -0.77380000       1.46550000
C       -1.29680000      -0.68230000      -0.02150000
O       -2.17810000      -0.82120000      -1.06650000
C       -0.80350000      -1.78750000       0.87130000
O       -0.79350000      -3.13240000       0.63550000
H       -0.29300000       1.67430000       0.93300000
H        0.71120000      -0.29420000      -0.76970000
H        1.27140000      -0.87340000       1.76270000
H       -0.68040000      -0.42940000       3.17700000
H       -2.81350000      -0.82370000       1.71640000
H       -2.60950000       0.02900000      -1.20940000
H       -0.80310000      -3.59730000       1.48000000
