19
Properties=species:S:1:pos:R:3 gdb_98545=T pbc="F F F"
C       -0.30900000       1.48350000      -0.86440000
N       -0.20510000       0.04120000      -0.89790000
C        0.86150000      -0.63050000      -0.39190000
O        1.82390000      -0.10640000       0.14860000
C        0.78850000      -2.11600000      -0.56520000
C        1.68250000      -3.12370000       0.16720000
C        1.72100000      -4.00120000      -1.12780000
C        0.83730000      -2.95900000      -1.82560000
N       -0.41290000      -2.74070000      -1.11440000
H        0.60280000       1.86620000      -0.40340000
H       -0.40330000       1.90200000      -1.87310000
H       -1.17110000       1.81020000      -0.27140000
H       -0.95260000      -0.52430000      -1.27140000
H        2.65190000      -2.69000000       0.41250000
H        1.25070000      -3.56960000       1.06890000
H        2.72350000      -4.06920000      -1.55490000
H        1.29640000      -5.00880000      -1.06800000
H        0.89160000      -2.64060000      -2.86050000
H       -0.72020000      -3.54960000      -0.57680000
