16
Properties=species:S:1:pos:R:3 gdb_131497=T pbc="F F F"
O       -0.12400000       1.22430000       1.23900000
C        0.02460000       0.11800000       0.40650000
C       -0.64050000      -1.18780000       0.75040000
C       -1.19010000      -0.33130000      -0.36730000
N       -2.43540000       0.33340000      -0.15180000
C       -2.71640000       1.65580000      -0.17190000
N       -4.00800000       1.85830000      -0.00030000
C       -4.48940000       0.58900000       0.11900000
N       -3.58580000      -0.37120000       0.03420000
H        0.33210000       1.04600000       2.06780000
H        0.96850000       0.07600000      -0.13660000
H       -0.15210000      -2.12040000       0.49380000
H       -1.24070000      -1.20670000       1.65270000
H       -1.03840000      -0.66510000      -1.38900000
H       -1.95200000       2.40740000      -0.28700000
H       -5.53500000       0.36780000       0.27530000
