20
Properties=species:S:1:pos:R:3 gdb_92833=T pbc="F F F"
C       -0.11790000       1.54700000      -0.10320000
C       -0.03190000       0.02170000      -0.01350000
C        0.98270000      -0.56180000      -1.08260000
N        2.33330000      -0.56750000      -0.43610000
C        2.03770000      -0.57490000       0.78960000
O        2.65880000      -0.18250000       1.94490000
C        1.32800000       0.26240000       2.43880000
C        0.63090000      -0.52720000       1.27900000
C        0.02720000      -1.84710000       1.76290000
H        0.87210000       2.00950000      -0.02850000
H       -0.54810000       1.84820000      -1.06360000
H       -0.74960000       1.96100000       0.68950000
H       -1.03170000      -0.40310000      -0.15030000
H        0.69880000      -1.56880000      -1.41340000
H        1.02880000       0.07100000      -1.97410000
H        1.14880000      -0.10420000       3.45100000
H        1.27070000       1.35170000       2.39440000
H       -0.93200000      -1.66910000       2.26150000
H       -0.15250000      -2.52750000       0.92540000
H        0.69020000      -2.35370000       2.47110000
