10
Properties=species:S:1:pos:R:3 gdb_23853=T pbc="F F F"
F        0.03670000       0.07890000       0.00360000
C       -0.00990000       1.39040000       0.01100000
N       -1.18910000       1.89600000       0.02870000
O       -1.26660000       3.27880000       0.03690000
C       -0.14940000       4.01970000       0.02630000
C        1.10530000       3.53110000       0.00780000
C        1.30410000       2.09720000      -0.00190000
O        2.35940000       1.49530000      -0.01910000
H       -0.40560000       5.07340000       0.03490000
H        1.95910000       4.19580000       0.00010000
