20
Properties=species:S:1:pos:R:3 gdb_6232=T pbc="F F F"
C       -0.08000000       1.52890000      -0.06530000
C        0.02770000       0.02430000       0.05130000
C        1.34750000      -0.71110000      -0.19050000
C        1.37600000      -1.98790000      -0.99730000
O        2.50400000       0.07910000      -0.33060000
C        0.75770000      -0.67830000       1.19200000
C        1.42500000       0.09220000       2.30860000
O        0.21520000      -1.91080000       1.60870000
H        0.88600000       2.01140000       0.10040000
H       -0.42530000       1.81650000      -1.06510000
H       -0.79360000       1.94160000       0.65660000
H       -0.84710000      -0.52570000      -0.28900000
H        1.36620000      -1.76540000      -2.07200000
H        2.28620000      -2.55490000      -0.77680000
H        0.51500000      -2.61630000      -0.76670000
H        2.55330000       0.36370000      -1.25010000
H        1.94890000       0.97370000       1.93930000
H        0.68380000       0.41450000       3.05070000
H        2.15130000      -0.55110000       2.81480000
H       -0.55080000      -1.71810000       2.16060000
