18
Properties=species:S:1:pos:R:3 gdb_81295=T pbc="F F F"
C       -0.15750000       1.62250000       0.00130000
C        0.04220000       0.11410000      -0.01830000
C        0.82220000      -0.61950000      -1.14560000
C        2.09350000       0.12550000      -1.51560000
O        2.83020000       0.54660000      -0.34800000
C        2.38640000       0.18730000       0.88520000
O        2.98470000       0.52510000       1.86700000
C        1.09140000      -0.60810000       0.87880000
N        1.25680000      -1.68060000      -0.16960000
H        0.78430000       2.16740000      -0.10690000
H       -0.82400000       1.93360000      -0.81040000
H       -0.61740000       1.93790000       0.94350000
H       -0.91800000      -0.39560000       0.12000000
H        0.29760000      -0.96040000      -2.04200000
H        2.75310000      -0.52630000      -2.09630000
H        1.87810000       1.02700000      -2.09900000
H        0.84610000      -0.92700000       1.89100000
H        0.48440000      -2.33510000      -0.05120000
