9
Properties=species:S:1:pos:R:3 gdb_514=T pbc="F F F"
O       -0.01810000       1.45700000       0.01010000
C        0.00320000       0.04130000       0.00230000
C       -1.36450000      -0.46120000       0.01260000
C       -2.48630000      -0.90590000       0.02090000
C       -3.75610000      -1.40830000       0.03030000
N       -4.83460000      -1.83930000       0.03830000
H        0.89530000       1.76170000       0.00370000
H        0.51110000      -0.35930000      -0.89020000
H        0.52800000      -0.36880000       0.88060000
