25
Properties=species:S:1:pos:R:3 gdb_121939=T pbc="F F F"
C       -0.08400000       1.47030000       0.06100000
C       -0.07600000      -0.04700000       0.14360000
O       -1.39910000      -0.51480000      -0.00650000
C       -1.50790000      -1.92140000       0.04790000
C       -2.97050000      -2.32180000      -0.15730000
C       -3.49350000      -1.84700000      -1.51950000
C       -3.13270000      -3.82110000       0.01370000
C       -3.24480000      -4.43750000       1.38590000
C       -4.44560000      -4.40190000       0.47200000
H        0.93010000       1.86500000       0.17500000
H       -0.47860000       1.79950000      -0.90460000
H       -0.71270000       1.89390000       0.84940000
H        0.57050000      -0.47360000      -0.64270000
H        0.33840000      -0.37920000       1.11130000
H       -0.87710000      -2.38440000      -0.73290000
H       -1.14620000      -2.29710000       1.01960000
H       -3.55060000      -1.82240000       0.63130000
H       -4.55740000      -2.07680000      -1.63140000
H       -3.35170000      -0.76990000      -1.63300000
H       -2.95690000      -2.34590000      -2.33590000
H       -2.59260000      -4.41050000      -0.72520000
H       -2.76320000      -5.39160000       1.56960000
H       -3.24340000      -3.76940000       2.24150000
H       -5.24530000      -3.71000000       0.71710000
H       -4.78550000      -5.33150000       0.02910000
