17
Properties=species:S:1:pos:R:3 gdb_23522=T pbc="F F F"
C        0.07420000       1.42890000      -0.14040000
N        0.03680000      -0.02000000       0.05850000
C       -1.14420000      -0.60050000       0.85430000
C       -0.20670000      -1.84630000       1.06540000
O        0.09500000      -2.63500000      -0.02900000
C        0.67860000      -0.57610000       1.34140000
C       -0.50160000      -0.01650000       2.10180000
N       -0.69290000       0.70380000       3.11850000
O       -2.06290000       1.02520000       3.26400000
H        1.07060000       1.70310000      -0.50030000
H       -0.64910000       1.69170000      -0.91840000
H       -0.14800000       2.01690000       0.76160000
H       -2.16910000      -0.55020000       0.49370000
H       -0.42590000      -2.48170000       1.92270000
H        0.27520000      -2.00350000      -0.74310000
H        1.74650000      -0.49820000       1.53730000
H       -2.05730000       1.55160000       4.07070000
