17
Properties=species:S:1:pos:R:3 gdb_84957=T pbc="F F F"
C        0.71890000       1.44450000      -0.14670000
C       -0.04050000       0.12850000       0.04670000
C        0.19460000      -0.86620000      -1.12090000
C        1.49000000      -1.59430000      -0.77900000
O        2.21120000      -2.22910000      -1.49830000
C        1.73570000      -1.33540000       0.73260000
O        2.74840000      -1.52930000       1.35360000
C        0.48920000      -0.66340000       1.27320000
O        0.72810000       0.08990000       2.42460000
H        1.78720000       1.27340000      -0.32940000
H        0.32210000       1.99650000      -1.00380000
H        0.63360000       2.06810000       0.74510000
H       -1.10550000       0.34110000       0.16900000
H       -0.60630000      -1.61590000      -1.17400000
H        0.25380000      -0.39090000      -2.10290000
H       -0.23500000      -1.47690000       1.47840000
H        1.59210000      -0.19260000       2.75960000
