16
Properties=species:S:1:pos:R:3 gdb_2187=T pbc="F F F"
C       -0.06370000       1.58260000      -0.12200000
C        0.03440000       0.06890000       0.00010000
N        1.08100000      -0.56150000      -0.81830000
C        1.76260000      -1.14210000       0.22300000
O        2.74730000      -1.83050000       0.27470000
C        0.76050000      -0.55370000       1.24910000
C        1.34190000       0.34890000       2.32840000
H        0.90840000       2.06030000       0.02550000
H       -0.43090000       1.86530000      -1.11440000
H       -0.76560000       1.98400000       0.61640000
H       -0.95220000      -0.38060000      -0.16890000
H        1.20240000      -0.63680000      -1.81790000
H        0.16270000      -1.35010000       1.70310000
H        1.96630000       1.14200000       1.90770000
H        0.55370000       0.81580000       2.92770000
H        1.97140000      -0.24230000       3.00000000
