13
Properties=species:S:1:pos:R:3 gdb_128013=T pbc="F F F"
C        0.01240000       1.42620000       0.11420000
N        0.10740000      -0.02360000       0.03840000
C        0.51820000      -0.57790000      -1.00450000
O        0.93410000      -0.03780000      -2.19750000
N        1.30130000      -1.11940000      -3.05600000
N        1.13250000      -2.19510000      -2.46420000
N        0.65800000      -1.96360000      -1.20900000
C        0.36630000      -2.98990000      -0.28970000
O        0.50730000      -4.15360000      -0.52510000
H        0.62820000       1.78010000       0.94750000
H        0.32580000       1.94360000      -0.79910000
H       -1.02280000       1.70380000       0.33780000
H       -0.00080000      -2.54680000       0.64840000
