19
Properties=species:S:1:pos:R:3 gdb_26271=T pbc="F F F"
C       -0.02480000       1.59120000       0.24070000
C       -0.03790000       0.06880000       0.01440000
C        0.87060000      -0.65460000       1.02470000
C       -1.44830000      -0.48790000       0.03020000
N       -1.89990000      -1.05850000      -1.09250000
C       -3.14290000      -1.54540000      -1.06840000
C       -3.94480000      -1.47070000       0.06430000
N       -3.50970000      -0.90440000       1.19340000
C       -2.27010000      -0.42030000       1.16520000
H        0.99560000       1.97890000       0.15690000
H       -0.64600000       2.10790000      -0.49690000
H       -0.39720000       1.85290000       1.23720000
H        0.33950000      -0.13250000      -0.99340000
H        0.53700000      -0.49020000       2.05510000
H        0.88550000      -1.73350000       0.84400000
H        1.89720000      -0.28270000       0.94630000
H       -3.50740000      -2.00860000      -1.98220000
H       -4.95460000      -1.87230000       0.06660000
H       -1.91080000       0.04180000       2.08150000
