16
Properties=species:S:1:pos:R:3 gdb_130397=T pbc="F F F"
N        0.01310000       1.52620000       0.26800000
C       -0.01070000       0.07530000       0.02170000
C       -1.40130000      -0.44500000      -0.09640000
C       -2.12870000      -0.86660000      -1.17090000
N       -1.75390000      -0.95950000      -2.52620000
C       -3.36500000      -1.25910000      -0.57870000
O       -4.40070000      -1.76630000      -1.27240000
N       -3.38790000      -1.09270000       0.71810000
O       -2.13950000      -0.55470000       1.03120000
H        0.97600000       1.83030000       0.38030000
H       -0.34870000       2.01780000      -0.54420000
H        0.52770000      -0.24680000      -0.88440000
H        0.47130000      -0.41160000       0.87730000
H       -1.63480000      -0.05260000      -2.96260000
H       -2.45350000      -1.46820000      -3.05390000
H       -5.10230000      -1.97870000      -0.64290000
