16
Properties=species:S:1:pos:R:3 gdb_1302=T pbc="F F F"
C       -0.05130000       1.53850000      -0.00680000
C       -0.03850000       0.01150000      -0.01890000
C       -1.42160000      -0.58420000       0.23300000
C        0.76610000      -0.64050000      -1.19610000
N        1.71030000      -1.13550000      -0.19260000
C        1.06730000      -0.59820000       0.89400000
O        1.29470000      -0.61120000       2.07480000
H        0.94310000       1.95040000      -0.20600000
H       -0.74130000       1.93110000      -0.76190000
H       -0.37480000       1.90540000       0.97220000
H       -2.14070000      -0.23730000      -0.51730000
H       -1.39950000      -1.67830000       0.20430000
H       -1.78840000      -0.28340000       1.21920000
H        0.23520000      -1.42910000      -1.73980000
H        1.20020000       0.06820000      -1.90930000
H        2.55250000      -1.68650000      -0.26930000
