14
Properties=species:S:1:pos:R:3 gdb_3497=T pbc="F F F"
N       -0.08350000      -1.18930000      -0.10070000
C       -0.04180000      -0.03500000      -0.04160000
C       -0.00710000       1.41750000       0.01770000
C        0.07070000       2.12420000       1.41530000
C        1.54390000       1.63190000       1.52050000
C        1.37960000       2.14820000       0.06100000
C        0.61500000       3.36700000       0.65360000
H       -0.73660000       1.83790000      -0.67980000
H       -0.70070000       2.09570000       2.18430000
H        2.20130000       2.21800000       2.16630000
H        1.70030000       0.55990000       1.65270000
H        2.12200000       2.14740000      -0.73640000
H       -0.08070000       3.88800000      -0.00960000
H        1.21140000       4.06660000       1.24240000
