15
Properties=species:S:1:pos:R:3 gdb_37540=T pbc="F F F"
N       -0.08560000       1.56150000      -0.11980000
C        1.37400000       1.24540000      -0.01490000
C        1.24640000       0.09770000       1.02090000
C       -0.04460000       0.08010000       0.03960000
C        1.21300000      -0.07810000      -0.87360000
N        1.83220000      -0.24450000      -2.16740000
C        2.99910000      -0.62950000      -1.80060000
O        3.28140000      -0.87050000      -0.47070000
C        1.94840000      -0.92900000       0.11590000
H       -0.41160000       1.99800000       0.74700000
H        2.15870000       1.99510000      -0.10130000
H        1.21420000       0.18340000       2.10770000
H       -0.92870000      -0.55370000       0.10880000
H        3.84380000      -0.78040000      -2.46310000
H        1.67850000      -1.98110000       0.24710000
