22
Properties=species:S:1:pos:R:3 gdb_120266=T pbc="F F F"
C       -0.83250000       1.63070000       0.54870000
C       -0.59530000       0.16710000       0.21860000
O       -1.81930000      -0.53180000       0.37870000
C       -1.73140000      -1.91380000       0.14120000
C       -2.96360000      -2.69050000       0.56600000
C       -4.13360000      -2.30290000      -0.24320000
N       -3.18270000      -3.26530000      -0.82750000
C       -1.98650000      -2.47040000      -1.30520000
C       -2.21280000      -1.51930000      -2.46700000
H        0.09600000       2.20040000       0.44630000
H       -1.57920000       2.06050000      -0.12510000
H       -1.19600000       1.73740000       1.57460000
H       -0.21950000       0.06100000      -0.81100000
H        0.16910000      -0.26270000       0.88730000
H       -0.80460000      -2.31540000       0.57250000
H       -3.04110000      -3.30480000       1.45660000
H       -5.08250000      -2.76480000       0.01110000
H       -4.21110000      -1.29430000      -0.63500000
H       -1.21740000      -3.20120000      -1.57110000
H       -2.81980000      -0.65520000      -2.18710000
H       -1.25700000      -1.14240000      -2.84560000
H       -2.71380000      -2.04610000      -3.28600000
