19
Properties=species:S:1:pos:R:3 gdb_41014=T pbc="F F F"
C        0.03100000       1.48200000       0.29860000
O        1.43810000       1.53020000      -0.13640000
C        1.16480000       0.35760000      -0.90590000
C       -0.02300000      -0.02710000      -0.07500000
C       -0.77210000      -0.91960000      -1.08480000
C        0.37790000      -1.03850000      -2.13110000
C        0.81750000       0.41150000      -2.44010000
C        2.25000000      -0.07080000      -2.76960000
C        1.85840000      -0.87870000      -1.50870000
H       -0.06510000       1.74770000       1.35380000
H       -0.58910000       2.14160000      -0.32050000
H        0.28850000      -0.60150000       0.80260000
H       -1.09400000      -1.87100000      -0.65330000
H       -1.64550000      -0.45200000      -1.55230000
H        0.27410000      -1.74190000      -2.95850000
H        0.22220000       1.16530000      -2.95810000
H        2.36950000      -0.63260000      -3.70070000
H        3.05800000       0.65360000      -2.64430000
H        2.43100000      -1.64400000      -0.98230000
