19
Properties=species:S:1:pos:R:3 gdb_87764=T pbc="F F F"
C        0.03230000       1.43590000      -0.05110000
C        0.08070000      -0.04940000       0.08240000
C       -0.82480000      -0.92520000       0.89330000
C        0.68430000      -1.01000000       1.08950000
C        1.27550000      -1.68000000      -0.11860000
C        2.67730000      -2.15250000      -0.34290000
C        1.51900000      -3.12850000      -0.39700000
O        1.43770000      -4.04810000       0.65310000
O        0.61010000      -0.79520000      -1.03470000
H        1.01830000       1.83960000      -0.30030000
H       -0.66530000       1.72620000      -0.84500000
H       -0.30950000       1.89320000       0.88190000
H       -1.35610000      -0.43040000       1.70080000
H       -1.36680000      -1.73430000       0.41100000
H        1.17890000      -0.83000000       2.03410000
H        3.15640000      -1.89100000      -1.28010000
H        3.33210000      -2.21410000       0.52020000
H        1.23960000      -3.50140000      -1.38290000
H        0.51090000      -4.13170000       0.90230000
