18
Properties=species:S:1:pos:R:3 gdb_8055=T pbc="F F F"
C        0.48050000       1.23090000       0.37330000
C        0.19090000      -0.22640000       0.13260000
C        0.62550000      -1.09650000      -1.08690000
C       -0.20300000      -2.05020000      -0.17980000
C        0.57190000      -1.44610000       1.02820000
C       -1.23920000      -0.90110000      -0.04780000
C       -2.23210000      -0.85580000       1.07530000
O       -2.32430000      -1.65490000       1.97600000
H        1.56150000       1.40410000       0.41610000
H        0.07300000       1.85490000      -0.42960000
H        0.05060000       1.57300000       1.32060000
H        0.19720000      -0.83370000      -2.05890000
H        1.69550000      -1.30940000      -1.16320000
H       -0.43130000      -3.10030000      -0.35710000
H        1.64030000      -1.67630000       1.07380000
H        0.10090000      -1.52410000       2.00670000
H       -1.73830000      -0.59150000      -0.97550000
H       -2.92980000       0.01400000       1.02190000
