18
Properties=species:S:1:pos:R:3 gdb_79238=T pbc="F F F"
C        0.03210000       1.60200000       0.01990000
C       -0.08270000       0.10830000       0.07270000
N        0.52520000      -0.69580000      -1.05120000
C       -0.49360000      -1.72890000      -0.75440000
C       -0.52320000      -1.83140000       0.78720000
C        0.42300000      -0.73590000       1.28360000
O        1.79780000      -0.95780000       1.37330000
C       -1.38540000      -0.83050000       0.05860000
O       -2.73260000      -0.62590000       0.20140000
H        1.08610000       1.89900000       0.05520000
H       -0.40790000       2.01630000      -0.89490000
H       -0.47740000       2.05860000       0.87390000
H        0.28610000      -0.24690000      -1.93430000
H       -0.69260000      -2.57980000      -1.39260000
H       -0.84080000      -2.74210000       1.27830000
H        0.07940000      -0.31870000       2.23410000
H        2.07820000      -1.11660000       0.45890000
H       -3.07400000      -0.23440000      -0.61070000
