16
Properties=species:S:1:pos:R:3 gdb_29451=T pbc="F F F"
C       -0.01520000       1.50340000       0.04510000
C       -0.00530000       0.00700000       0.03950000
C       -0.03130000      -0.81120000      -1.06720000
N       -0.01110000      -2.16230000      -0.68790000
C        0.02750000      -2.17360000       0.67270000
C        0.03280000      -0.88210000       1.16540000
N        0.07240000      -0.90160000       2.54920000
C        0.08980000      -2.17380000       2.85850000
N        0.06390000      -3.01860000       1.74950000
H        0.87570000       1.90870000       0.53840000
H       -0.04690000       1.90280000      -0.97290000
H       -0.88210000       1.89690000       0.58840000
H       -0.06280000      -0.55340000      -2.11400000
H       -0.02480000      -2.94240000      -1.31820000
H        0.12110000      -2.58300000       3.85750000
H        0.07140000      -4.02300000       1.76670000
