21
Properties=species:S:1:pos:R:3 gdb_120861=T pbc="F F F"
C        0.22810000       1.30700000      -0.33690000
O        0.26890000      -0.09000000      -0.17180000
C        0.45740000      -0.47830000       1.17030000
C        0.47500000      -1.98440000       1.21670000
O        1.73520000      -2.64700000       1.09350000
C        1.02860000      -2.76840000       2.32970000
C        1.64770000      -2.16420000       3.56370000
O        2.43040000      -3.15880000       4.18490000
C        3.05720000      -2.70670000       5.36110000
H        1.16950000       1.78410000      -0.02160000
H        0.07060000       1.50530000      -1.39950000
H       -0.59540000       1.76300000       0.23650000
H        1.39940000      -0.07160000       1.56840000
H       -0.36690000      -0.09610000       1.79980000
H       -0.32680000      -2.43560000       0.63010000
H        0.60760000      -3.75900000       2.50900000
H        2.26180000      -1.29120000       3.29580000
H        0.85190000      -1.81870000       4.24870000
H        3.74660000      -1.87100000       5.16230000
H        2.32390000      -2.37390000       6.11360000
H        3.62690000      -3.54450000       5.76960000
