21
Properties=species:S:1:pos:R:3 gdb_75474=T pbc="F F F"
C       -0.59230000       1.45090000      -0.10530000
C       -0.17470000       0.01380000      -0.04560000
C        0.21550000      -0.74350000      -1.07420000
C        0.55560000      -2.15710000      -0.67600000
C       -0.00650000      -2.24370000       0.76470000
C       -0.13410000      -0.77660000       1.25760000
C        1.05570000      -0.38130000       2.18140000
C        0.93790000       0.92500000       2.81810000
C        0.83150000       1.98910000       3.36840000
H        0.05600000       2.08490000       0.50800000
H       -0.57480000       1.82520000      -1.13290000
H       -1.60880000       1.58070000       0.28810000
H        0.30120000      -0.38720000      -2.09600000
H        0.10860000      -2.90610000      -1.33980000
H        1.64060000      -2.33220000      -0.71000000
H       -1.00130000      -2.69820000       0.73740000
H        0.60890000      -2.85880000       1.42820000
H       -1.05220000      -0.63330000       1.84010000
H        1.14260000      -1.14120000       2.96870000
H        1.98820000      -0.42820000       1.60410000
H        0.74220000       2.93120000       3.84970000
