22
Properties=species:S:1:pos:R:3 gdb_114118=T pbc="F F F"
C        0.12670000       1.02960000      -0.62720000
C       -0.00930000      -0.37640000      -0.02670000
C        0.85900000      -0.56890000       1.18420000
C        2.24890000      -1.05710000       1.13900000
N        1.21900000      -1.94430000       1.73790000
C        0.91990000      -1.40580000       3.12400000
C        2.02430000      -1.61380000       4.14350000
O        2.30490000      -2.99300000       4.30220000
C        0.56450000       0.00130000       2.57890000
H        1.15580000       1.22480000      -0.94610000
H       -0.52500000       1.14820000      -1.49770000
H       -0.14720000       1.80080000       0.10070000
H       -1.05610000      -0.56310000       0.24570000
H        0.25690000      -1.13380000      -0.77290000
H        2.61660000      -1.44620000       0.19420000
H        3.01500000      -0.60590000       1.76450000
H        0.03020000      -1.93600000       3.47470000
H        2.93040000      -1.05020000       3.86730000
H        1.70200000      -1.23780000       5.12170000
H        2.35730000      -3.36720000       3.41440000
H        1.19290000       0.84030000       2.89400000
H       -0.48180000       0.26980000       2.73740000
