20
Properties=species:S:1:pos:R:3 gdb_32735=T pbc="F F F"
C        0.11480000       1.61210000       0.12370000
C        0.14310000       0.08220000       0.11040000
C        0.58060000      -0.49580000      -1.25120000
C        0.61590000      -1.98700000      -1.30900000
C       -0.24050000      -2.88200000      -1.91480000
O       -1.34770000      -2.49440000      -2.62310000
C        0.22160000      -4.20330000      -1.66300000
C        1.36220000      -4.08380000      -0.89910000
N        1.58770000      -2.75270000      -0.68760000
H        1.10280000       2.03030000      -0.10120000
H       -0.58410000       2.00010000      -0.62570000
H       -0.19550000       1.99830000       1.09970000
H        0.82030000      -0.28150000       0.89460000
H       -0.84780000      -0.31540000       0.35900000
H       -0.11200000      -0.15100000      -2.02670000
H        1.56460000      -0.07900000      -1.51410000
H       -1.72810000      -3.27260000      -3.03900000
H       -0.22800000      -5.12520000      -2.00120000
H        2.02210000      -4.83520000      -0.49710000
H        2.36280000      -2.37390000      -0.17320000
