14
Properties=species:S:1:pos:R:3 gdb_66870=T pbc="F F F"
O       -0.10690000       1.43470000       0.04710000
C        0.04360000       0.07220000      -0.03690000
C        0.02280000      -0.92190000       1.11720000
N        0.91860000      -2.04810000       1.01820000
C        1.18010000      -2.01830000      -0.23450000
O        0.52530000      -2.91630000      -1.09520000
C       -0.34310000      -1.68750000      -1.29190000
C       -1.03760000      -1.00100000      -0.04620000
C        0.83310000      -0.74090000      -1.05470000
H        0.63160000       1.79580000       0.55090000
H       -0.33210000      -0.60990000       2.09290000
H       -0.90240000      -1.76260000      -2.22190000
H       -2.09740000      -0.93290000       0.15140000
H        1.48400000      -0.38010000      -1.84340000
