23
Properties=species:S:1:pos:R:3 gdb_90405=T pbc="F F F"
C       -0.30750000       1.41890000      -0.21340000
C        0.13980000      -0.03860000      -0.15950000
C        1.28310000      -0.59760000      -1.07710000
C        1.91910000      -1.27100000       0.14520000
C        2.33790000      -0.26150000       1.19990000
C        2.99470000      -0.90300000       2.41680000
C        2.95190000       1.08890000       0.86660000
C        0.87130000      -0.62080000       1.05900000
O        0.15630000      -1.21410000       2.09480000
H        0.51830000       2.12280000      -0.08500000
H       -0.78810000       1.64190000      -1.17260000
H       -1.04250000       1.62290000       0.57390000
H       -0.74020000      -0.67440000      -0.30780000
H        0.91870000      -1.30460000      -1.82530000
H        1.90200000       0.14770000      -1.58600000
H        2.30500000      -2.28380000       0.16530000
H        4.06910000      -1.03210000       2.24500000
H        2.88300000      -0.26880000       3.30550000
H        2.56210000      -1.87840000       2.64760000
H        2.58320000       1.51270000      -0.06770000
H        2.75810000       1.81770000       1.66290000
H        4.04030000       0.99190000       0.77270000
H        0.17590000      -0.62620000       2.85710000
