21
Properties=species:S:1:pos:R:3 gdb_76645=T pbc="F F F"
C       -0.04730000       1.57000000      -0.22350000
C        0.03830000       0.07150000      -0.02500000
C        1.36250000      -0.65520000      -0.13510000
O        2.54580000       0.08150000      -0.27320000
C        0.68100000      -0.56150000       1.20500000
C        1.27450000       0.24990000       2.32370000
C        0.36990000       0.59450000       3.53220000
O        1.30390000       0.00620000       4.45870000
C        2.12070000      -0.49880000       3.38230000
H        0.89700000       2.06420000       0.01510000
H       -0.28880000       1.80630000      -1.26610000
H       -0.83000000       2.01370000       0.40110000
H       -0.81710000      -0.47440000      -0.41570000
H        1.37820000      -1.62550000      -0.63130000
H        2.59820000       0.39620000      -1.18190000
H        0.20840000      -1.48080000       1.54540000
H        1.80060000       1.12100000       1.93610000
H        0.19980000       1.65830000       3.73700000
H       -0.59800000       0.07300000       3.53830000
H        2.07300000      -1.59480000       3.31060000
H        3.16900000      -0.19530000       3.48060000
