16
Properties=species:S:1:pos:R:3 gdb_93619=T pbc="F F F"
O        0.35370000       1.18680000       0.65480000
C        0.07680000      -0.08810000       0.15430000
C       -1.40590000      -0.47900000       0.05410000
N       -1.44060000      -1.58020000      -0.92820000
C       -0.44820000      -1.25530000      -1.97410000
C       -1.05460000      -0.65190000      -3.15820000
C       -1.54060000      -0.12860000      -4.12380000
C        0.52720000      -0.24930000      -1.29650000
O        1.42720000       0.36770000      -1.79790000
H        1.06520000       1.54720000       0.10500000
H        0.59740000      -0.87270000       0.73760000
H       -1.84220000      -0.80060000       1.00070000
H       -1.98490000       0.37300000      -0.32000000
H       -1.17220000      -2.44710000      -0.47600000
H        0.11020000      -2.15120000      -2.27050000
H       -1.97490000       0.32420000      -4.98080000
