16
Properties=species:S:1:pos:R:3 gdb_128639=T pbc="F F F"
C       -0.04260000       1.39150000       0.02180000
O        0.04580000      -0.03670000       0.02470000
C        0.65570000      -0.61020000       1.06120000
N        0.70440000      -1.95100000       1.00180000
C        1.30760000      -2.51440000       2.02720000
C        1.84900000      -1.76010000       3.08540000
C        2.53950000      -2.38980000       4.26120000
N        1.75320000      -0.43430000       3.05790000
N        1.14720000       0.15900000       2.03080000
H        0.95190000       1.84500000       0.03150000
H       -0.56900000       1.64320000      -0.89930000
H       -0.59830000       1.75090000       0.89170000
H        1.37350000      -3.60160000       2.02670000
H        3.40880000      -2.97700000       3.94540000
H        2.87450000      -1.60900000       4.94570000
H        1.86880000      -3.06680000       4.80170000
