22
Properties=species:S:1:pos:R:3 gdb_99738=T pbc="F F F"
C        0.05000000      -0.04960000      -1.83180000
C       -0.08520000       0.10440000      -0.31090000
C        0.24360000       1.53560000       0.13970000
C       -1.47300000      -0.38050000       0.22550000
C       -2.68940000       0.06770000      -0.58960000
O       -2.73040000       1.48860000      -0.62900000
C       -1.47750000      -1.90990000       0.27470000
N       -1.11290000      -2.45330000       1.47330000
O       -1.76490000      -2.60310000      -0.68560000
H        1.08110000       0.14970000      -2.14120000
H       -0.21810000      -1.05860000      -2.15610000
H       -0.59510000       0.66460000      -2.35370000
H        0.66070000      -0.55700000       0.15300000
H       -0.47010000       2.24910000      -0.27570000
H        0.21360000       1.62600000       1.23140000
H        1.25080000       1.81410000      -0.18920000
H       -1.58790000       0.00910000       1.24500000
H       -2.62890000      -0.36690000      -1.59360000
H       -3.59820000      -0.33650000      -0.11740000
H       -3.45860000       1.74700000      -1.20130000
H       -0.81110000      -1.89040000       2.24860000
H       -0.99780000      -3.45260000       1.52590000
