22
Properties=species:S:1:pos:R:3 gdb_116458=T pbc="F F F"
C       -0.03120000       1.48580000       0.04040000
N        0.07350000       0.02930000       0.03330000
C       -1.24670000      -0.57080000      -0.17570000
C       -1.16540000      -2.09010000      -0.16910000
O       -0.61910000      -2.55120000       1.05050000
C        0.68730000      -2.04050000       1.22460000
C        0.74280000      -0.50470000       1.23300000
C        2.21610000      -0.06010000       1.23580000
O        2.83160000      -0.32040000      -0.01030000
H        0.95790000       1.94900000       0.04440000
H       -0.54750000       1.81170000      -0.86750000
H       -0.59720000       1.86750000       0.90950000
H       -1.95860000      -0.25070000       0.60850000
H       -1.63920000      -0.22240000      -1.13840000
H       -2.16430000      -2.52620000      -0.25840000
H       -0.55360000      -2.43610000      -1.01870000
H        1.04560000      -2.41910000       2.18590000
H        1.35520000      -2.41320000       0.43290000
H        0.25150000      -0.13820000       2.15410000
H        2.29290000       1.00420000       1.50500000
H        2.76140000      -0.62030000       2.00500000
H        2.12340000      -0.21940000      -0.66350000
