16
Properties=species:S:1:pos:R:3 gdb_84326=T pbc="F F F"
C       -0.01550000       1.53460000       0.04540000
C        0.02090000      -0.01400000      -0.00200000
C        0.72050000      -0.49270000      -1.23650000
C        1.94370000      -1.02130000      -1.20150000
C        2.68900000      -1.16430000       0.05790000
O        3.83400000      -1.50600000       0.14600000
O        2.00170000      -0.87190000       1.22460000
C        0.65240000      -0.56650000       1.25600000
N       -0.00780000      -0.68830000       2.32220000
H        0.99650000       1.94550000       0.10190000
H       -0.49640000       1.93200000      -0.85330000
H       -0.57940000       1.85980000       0.92210000
H       -1.01510000      -0.36740000      -0.00480000
H        0.20550000      -0.35300000      -2.18330000
H        2.48080000      -1.33810000      -2.08680000
H        0.58520000      -1.04120000       3.07580000
