16
Properties=species:S:1:pos:R:3 gdb_35264=T pbc="F F F"
N       -0.14430000      -1.21660000       0.13890000
C        0.03820000      -0.07570000       0.13330000
C        0.09780000       1.37010000       0.08960000
O        0.76470000       2.05170000       1.15590000
C        1.32530000       2.15860000      -0.14910000
C        2.69950000       1.57290000      -0.35580000
C        3.79170000       2.13790000       0.58890000
C        3.79480000       0.71510000       1.18370000
O        2.84290000       0.25730000       0.19370000
H       -0.85210000       1.81670000      -0.20340000
H        1.18240000       3.13390000      -0.62170000
H        2.93670000       1.59810000      -1.42810000
H        4.71430000       2.43210000       0.08800000
H        3.46560000       2.93400000       1.25900000
H        4.73830000       0.16390000       1.11670000
H        3.39100000       0.62990000       2.19770000
