20
Properties=species:S:1:pos:R:3 gdb_8366=T pbc="F F F"
O       -0.11510000       1.44180000       0.01050000
C        0.02240000       0.02820000       0.00200000
C       -1.37740000      -0.57570000       0.01150000
C       -1.37940000      -2.08400000       0.00410000
C       -0.76470000      -3.05280000       1.06960000
C       -1.40760000      -3.97170000      -0.00500000
C       -2.63140000      -3.01450000       0.00900000
C       -0.78100000      -3.04220000      -1.08010000
H        0.76500000       1.82910000       0.00420000
H        0.56910000      -0.31350000      -0.89150000
H        0.58510000      -0.32260000       0.88200000
H       -1.90910000      -0.20790000       0.89800000
H       -1.92480000      -0.19920000      -0.86170000
H        0.32660000      -3.07630000       1.14590000
H       -1.23270000      -3.04920000       2.05870000
H       -1.42510000      -5.06200000      -0.01030000
H       -3.24120000      -3.00650000       0.91760000
H       -3.25500000      -2.99750000      -0.89010000
H       -1.26390000      -3.02890000      -2.06200000
H        0.30900000      -3.06490000      -1.17320000
