13
Properties=species:S:1:pos:R:3 gdb_130303=T pbc="F F F"
N       -0.01620000       1.41700000       0.15610000
C        0.05730000       0.04330000       0.05130000
N       -1.05830000      -0.69060000      -0.00080000
O       -0.63770000      -2.07620000      -0.02740000
C        0.67390000      -2.03400000      -0.00020000
C        1.18900000      -0.80020000       0.05890000
O        2.57560000      -0.86060000      -0.00720000
C        2.81700000      -2.25690000       0.22510000
O        1.59580000      -3.01330000      -0.06980000
H        0.72470000       1.91200000      -0.31900000
H       -0.93030000       1.78080000      -0.07860000
H        3.61000000      -2.60790000      -0.43580000
H        3.05820000      -2.42260000       1.28420000
