21
Properties=species:S:1:pos:R:3 gdb_109302=T pbc="F F F"
O        0.09810000       1.40030000      -0.04240000
C        0.00680000      -0.00940000       0.03300000
C       -1.42970000      -0.45820000       0.02980000
C       -2.45090000       0.39920000       0.03200000
C       -3.89740000      -0.02110000       0.02160000
C       -4.06840000      -1.50770000      -0.32460000
C       -3.04240000      -2.36100000       0.42350000
O       -3.17210000      -3.74790000       0.13360000
C       -1.62480000      -1.95710000       0.02460000
H        1.02770000       1.64070000      -0.00460000
H        0.53050000      -0.48980000      -0.81370000
H        0.49490000      -0.39210000       0.94760000
H       -2.23900000       1.46320000       0.04530000
H       -4.34600000       0.19180000       1.00390000
H       -4.45970000       0.59670000      -0.68990000
H       -5.08550000      -1.84240000      -0.08300000
H       -3.92570000      -1.66540000      -1.40070000
H       -3.16390000      -2.18710000       1.50660000
H       -4.06540000      -4.01690000       0.37090000
H       -1.42080000      -2.36840000      -0.97460000
H       -0.90470000      -2.44120000       0.69690000
