16
Properties=species:S:1:pos:R:3 gdb_20900=T pbc="F F F"
C       -0.15650000       1.51160000       0.09140000
C        0.12510000       0.01170000       0.00110000
N        0.74520000      -0.51120000       1.20350000
C        0.26250000      -1.36380000       2.12000000
N        1.13990000      -1.56970000       3.08780000
C        2.18510000      -0.78320000       2.69990000
N        3.32220000      -0.65160000       3.47250000
N        2.00610000      -0.12070000       1.56240000
H        0.77110000       2.05730000       0.27670000
H       -0.59330000       1.86830000      -0.84610000
H       -0.85440000       1.72960000       0.90510000
H       -0.79890000      -0.55420000      -0.15130000
H        0.78920000      -0.20110000      -0.84310000
H       -0.71840000      -1.81000000       2.04490000
H        3.49750000      -1.45900000       4.05230000
H        4.13520000      -0.35660000       2.95200000
