15
Properties=species:S:1:pos:R:3 gdb_7062=T pbc="F F F"
C       -0.00490000       1.49220000      -0.00960000
N        0.00180000       0.03000000       0.00180000
C        0.70400000      -0.51940000       1.15610000
C        2.12770000      -0.16710000       1.14580000
N        3.24830000       0.11110000       1.15910000
C       -1.33840000      -0.53840000      -0.08870000
C       -1.98650000      -0.20530000      -1.36170000
N       -2.51560000       0.05760000      -2.35370000
H        1.02380000       1.85850000      -0.00270000
H       -0.48740000       1.84440000      -0.92370000
H       -0.53790000       1.92100000       0.85830000
H        0.27970000      -0.18630000       2.12330000
H        0.62780000      -1.61250000       1.13440000
H       -1.26950000      -1.63010000      -0.02200000
H       -2.00810000      -0.20760000       0.72900000
