23
Properties=species:S:1:pos:R:3 gdb_95078=T pbc="F F F"
C        0.06680000       1.57950000      -0.00870000
C        0.01420000       0.04910000       0.06070000
C        0.58090000      -0.57270000      -1.24210000
C        1.13230000      -2.00510000      -1.06840000
C        1.68500000      -2.19710000       0.35310000
C        2.24960000      -0.85900000       0.91880000
C        0.76820000      -0.52100000       1.28170000
O        0.48090000       0.28210000       2.39920000
C        0.52280000      -2.05090000       1.37110000
H        1.10250000       1.93510000      -0.06130000
H       -0.45260000       1.93690000      -0.90450000
H       -0.39840000       2.03290000       0.86790000
H       -1.03680000      -0.24810000       0.17860000
H       -0.17570000      -0.53800000      -2.03260000
H        1.39760000       0.07200000      -1.58710000
H        0.35050000      -2.75360000      -1.24730000
H        1.91300000      -2.18740000      -1.81580000
H        2.31380000      -3.08580000       0.43410000
H        2.83610000      -1.03150000       1.82730000
H        2.80650000      -0.18950000       0.25830000
H        0.90680000      -0.11460000       3.16580000
H       -0.46470000      -2.43510000       1.09630000
H        0.79980000      -2.43510000       2.35930000
