18
Properties=species:S:1:pos:R:3 gdb_50429=T pbc="F F F"
O       -0.23340000       0.08490000       0.10520000
C       -0.04600000       1.27160000       0.02700000
C        1.31480000       1.94050000       0.00020000
C        1.47310000       2.75830000      -1.30840000
C        2.64060000       3.70860000      -1.26290000
C        3.04500000       4.28730000      -0.13170000
C        2.37100000       4.00240000       1.15690000
N        0.88790000       4.15140000       1.19450000
C        1.47980000       2.80970000       1.23960000
H       -0.89720000       1.98990000      -0.02530000
H        2.07080000       1.14870000       0.03770000
H        1.57460000       2.06600000      -2.15050000
H        0.55040000       3.32670000      -1.48330000
H        3.14350000       3.92730000      -2.20040000
H        3.88530000       4.97460000      -0.12400000
H        2.90940000       4.27980000       2.05870000
H        0.59530000       4.43460000       2.12640000
H        1.45510000       2.26910000       2.18350000
