13
Properties=species:S:1:pos:R:3 gdb_4682=T pbc="F F F"
C        0.13600000       1.45290000       0.08290000
C       -0.05030000      -0.01410000      -0.03020000
C       -1.11270000      -0.83330000      -0.25300000
N       -0.69750000      -2.15050000      -0.25810000
C        0.58450000      -2.08620000      -0.04130000
O        1.05060000      -0.81010000       0.10810000
C        1.51430000      -3.14150000       0.05410000
C        2.31010000      -4.03980000       0.13590000
H        0.82950000       1.82760000      -0.67780000
H       -0.82380000       1.95720000      -0.04850000
H        0.54010000       1.73020000       1.06270000
H       -2.14530000      -0.56330000      -0.40940000
H        3.00780000      -4.83750000       0.20710000
