19
Properties=species:S:1:pos:R:3 gdb_87752=T pbc="F F F"
C        0.17950000       1.60400000      -0.18540000
C        0.13610000       0.09810000      -0.05580000
C        1.42230000      -0.72130000       0.02180000
C        0.53020000      -0.58720000       1.21090000
C        0.80340000      -0.01930000       2.59920000
C       -0.05170000      -1.22640000       3.08030000
O       -0.20940000      -1.70210000       1.72850000
C        0.69210000      -2.21770000       3.95010000
O        0.59910000      -2.26290000       5.14880000
H        0.99770000       2.03030000       0.40510000
H        0.33570000       1.90590000      -1.22650000
H       -0.75380000       2.06270000       0.15950000
H       -0.67830000      -0.39120000      -0.58490000
H        1.44110000      -1.68390000      -0.47800000
H        2.37110000      -0.19200000       0.02920000
H        1.84860000      -0.03730000       2.91690000
H        0.37480000       0.96000000       2.81660000
H       -1.00530000      -0.96320000       3.54960000
H        1.36250000      -2.89590000       3.37420000
