21
Properties=species:S:1:pos:R:3 gdb_81008=T pbc="F F F"
C       -0.11980000       1.51760000      -0.03960000
C       -0.06700000      -0.00150000      -0.00910000
C        1.16320000      -0.63260000      -0.69890000
O        1.95360000      -0.36670000       0.49580000
C        0.68560000      -0.63520000       1.20360000
C        0.62250000      -0.11400000       2.61120000
C        0.54120000      -2.15310000       0.94900000
C        0.91750000      -2.14850000      -0.56960000
O       -0.11590000      -2.54490000      -1.45350000
H        0.86090000       1.94680000       0.18230000
H       -0.43390000       1.87300000      -1.02670000
H       -0.83810000       1.90410000       0.69170000
H       -1.03270000      -0.44750000      -0.26140000
H        1.59670000      -0.25320000      -1.62440000
H        0.75800000       0.97040000       2.64140000
H       -0.34590000      -0.35530000       3.06210000
H        1.40560000      -0.57440000       3.22270000
H        1.24000000      -2.72580000       1.56400000
H       -0.47450000      -2.52650000       1.11050000
H        1.84100000      -2.70730000      -0.76460000
H       -0.24170000      -3.49400000      -1.36360000
