18
Properties=species:S:1:pos:R:3 gdb_55087=T pbc="F F F"
C       -0.07710000       1.41830000      -0.16300000
C        0.00050000      -0.09650000      -0.05520000
O        1.01940000      -0.73020000      -0.25930000
N       -1.15990000      -0.71160000       0.33110000
C       -2.57810000      -0.30460000       0.23320000
C       -2.93560000      -1.79600000       0.07720000
O       -4.00770000      -2.38780000       0.70660000
C       -2.18190000      -2.41680000      -1.07320000
C       -1.46280000      -2.12840000       0.22720000
H        0.93530000       1.82060000      -0.12630000
H       -0.52810000       1.70480000      -1.12010000
H       -0.68150000       1.85870000       0.63500000
H       -2.96000000       0.11600000       1.16960000
H       -2.82130000       0.36160000      -0.60230000
H       -4.72300000      -2.48340000       0.06840000
H       -2.41250000      -3.46710000      -1.22510000
H       -1.94010000      -1.85790000      -1.97340000
H       -0.94280000      -2.87080000       0.81670000
