19
Properties=species:S:1:pos:R:3 gdb_95054=T pbc="F F F"
C       -0.33810000       1.46090000       0.27330000
N        0.08710000       0.09220000      -0.00450000
C       -1.02490000      -0.83250000      -0.28850000
C       -1.45180000      -1.44030000       1.07640000
C       -0.14360000      -1.50200000       1.84900000
O        0.70680000      -2.62780000       1.44450000
C        1.57560000      -1.79940000       0.75970000
N        2.61990000      -2.06310000       0.12100000
C        0.81180000      -0.51810000       1.09260000
H        0.54190000       2.08030000       0.46920000
H       -0.84010000       1.86780000      -0.60920000
H       -1.02480000       1.56340000       1.13320000
H       -1.83450000      -0.31250000      -0.80410000
H       -0.66520000      -1.62700000      -0.95170000
H       -2.14720000      -0.77590000       1.60110000
H       -1.92520000      -2.42070000       0.98280000
H       -0.22570000      -1.46230000       2.93540000
H        2.81680000      -3.06590000       0.12760000
H        1.38460000       0.21060000       1.66590000
