18
Properties=species:S:1:pos:R:3 gdb_68629=T pbc="F F F"
O        0.06450000       1.38130000      -0.05460000
C        0.04350000      -0.00340000      -0.00820000
C        0.31170000      -0.82390000      -1.28370000
N       -0.40450000      -1.95680000      -0.57350000
C        0.55690000      -2.19310000       0.55620000
C        0.91560000      -0.74820000       1.02090000
C       -1.28280000      -0.85870000       0.02930000
C       -1.98040000      -1.11700000       1.26810000
C       -2.55280000      -1.29210000       2.31210000
H        0.01330000       1.72200000       0.84500000
H       -0.26300000      -0.49070000      -2.15010000
H        1.34610000      -1.03780000      -1.56350000
H        0.07010000      -2.78630000       1.33130000
H        1.41580000      -2.74950000       0.17520000
H        1.97290000      -0.49490000       0.90710000
H        0.61100000      -0.54150000       2.05110000
H       -1.98040000      -0.51880000      -0.74090000
H       -3.07060000      -1.46040000       3.22410000
