16
Properties=species:S:1:pos:R:3 gdb_75194=T pbc="F F F"
N        0.02980000       1.35890000       0.21650000
C       -0.07510000       0.01170000       0.02220000
N       -1.12410000      -0.70510000       0.08730000
C       -0.67340000      -2.08440000      -0.08650000
C        0.81290000      -1.96760000      -0.48610000
O        0.94490000      -2.21580000      -1.86720000
C        2.20760000      -2.34360000      -2.34310000
N        2.40060000      -2.43450000      -3.58430000
O        1.13390000      -0.60610000      -0.20050000
H        0.79040000       1.80780000      -0.27030000
H       -0.85090000       1.84750000       0.16910000
H       -0.79200000      -2.65580000       0.84180000
H       -1.23200000      -2.59630000      -0.87490000
H        1.51030000      -2.59460000       0.07780000
H        2.97110000      -2.36880000      -1.55440000
H        3.39380000      -2.55220000      -3.77430000
