18
Properties=species:S:1:pos:R:3 gdb_32874=T pbc="F F F"
C        0.74020000       1.49090000      -0.43840000
O        0.90080000       0.09750000      -0.31000000
C       -0.21400000      -0.63190000      -0.79720000
C        0.09970000      -2.08690000      -0.71890000
C       -0.70190000      -3.18390000      -0.47160000
C        0.12510000      -4.33620000      -0.58950000
O       -0.23320000      -5.64580000      -0.43340000
C        1.40000000      -3.91830000      -0.89560000
N        1.35710000      -2.54250000      -0.98950000
H        0.59430000       1.79090000      -1.48830000
H       -0.11900000       1.85690000       0.14470000
H        1.65010000       1.96110000      -0.05800000
H       -1.12060000      -0.41290000      -0.21090000
H       -0.42320000      -0.31790000      -1.83680000
H       -1.75820000      -3.16310000      -0.24510000
H       -1.16460000      -5.67730000      -0.19860000
H        2.30910000      -4.47660000      -1.03820000
H        2.14870000      -1.93130000      -1.08850000
