20
Properties=species:S:1:pos:R:3 gdb_109173=T pbc="F F F"
C       -0.01640000       1.50640000       0.01580000
C        0.04330000      -0.02160000       0.01920000
C        0.75600000      -0.55790000      -1.21870000
O        0.83740000      -1.99210000      -1.20300000
C        1.05840000      -2.55730000       0.00430000
C        1.31720000      -4.04320000      -0.10410000
O        1.48520000      -4.62830000       1.15550000
N        1.06890000      -2.00400000       1.14440000
C        0.76400000      -0.58290000       1.25300000
H        0.98970000       1.94080000      -0.00560000
H       -0.56390000       1.88460000      -0.85380000
H       -0.51920000       1.87880000       0.91370000
H       -0.97890000      -0.42230000       0.00950000
H        0.22910000      -0.30310000      -2.14160000
H        1.77540000      -0.15250000      -1.28120000
H        0.47400000      -4.49940000      -0.64580000
H        2.20770000      -4.18960000      -0.73640000
H        1.42490000      -3.88690000       1.78110000
H        1.70060000      -0.03260000       1.42520000
H        0.15440000      -0.43120000       2.15110000
