18
Properties=species:S:1:pos:R:3 gdb_71344=T pbc="F F F"
C       -0.04070000       1.50820000       0.06290000
C        0.01260000       0.00580000      -0.02430000
C        0.52810000      -0.91490000      -1.12910000
N        0.06890000      -1.95390000      -0.10920000
C        0.56630000      -1.01860000       1.03340000
C       -0.77830000      -1.14170000       1.72020000
C       -1.30910000      -1.82230000       2.88920000
O       -1.27590000      -0.37560000       2.78910000
C       -1.13540000      -1.03360000       0.25200000
H        0.96330000       1.94040000      -0.01060000
H       -0.64510000       1.92630000      -0.74960000
H       -0.48020000       1.82640000       1.01340000
H       -0.02840000      -0.95520000      -2.07200000
H        1.60630000      -0.94070000      -1.32130000
H        1.58250000      -1.10330000       1.42030000
H       -2.30450000      -2.26200000       2.86000000
H       -0.63200000      -2.24720000       3.62800000
H       -2.08980000      -1.13570000      -0.26590000
