17
Properties=species:S:1:pos:R:3 gdb_5612=T pbc="F F F"
C       -0.02740000       1.51400000       0.02270000
C       -0.00940000       0.01530000       0.01450000
C       -0.02460000      -0.80070000      -1.09410000
N        0.00140000      -2.10510000      -0.66820000
C        0.03280000      -2.14250000       0.70280000
C        0.02760000      -0.84560000       1.15840000
C        0.05590000      -0.41720000       2.59110000
O        0.07740000      -1.57320000       3.41700000
H        0.86190000       1.93350000       0.51050000
H       -0.06040000       1.91340000      -0.99520000
H       -0.89830000       1.91180000       0.55910000
H       -0.05170000      -0.55420000      -2.14390000
H       -0.00370000      -2.91040000      -1.26760000
H        0.05600000      -3.07090000       1.24710000
H        0.94050000       0.21660000       2.77990000
H       -0.82470000       0.21010000       2.81640000
H        0.10260000      -1.28260000       4.33260000
