16
Properties=species:S:1:pos:R:3 gdb_83504=T pbc="F F F"
O        0.04780000       1.39380000       0.09820000
C        0.00860000      -0.00150000       0.01240000
C       -1.36530000      -0.61890000      -0.40800000
C       -1.49420000      -0.01590000      -1.81830000
O       -0.12800000      -0.01040000      -2.29260000
C        0.67940000      -0.59410000      -1.23330000
C        0.28780000      -2.08090000      -1.13280000
O        0.87940000      -3.06540000      -1.50210000
N       -0.96000000      -2.01610000      -0.53940000
H        0.13540000       1.73470000      -0.80100000
H        0.36090000      -0.42360000       0.95510000
H       -2.20570000      -0.46640000       0.26630000
H       -2.11550000      -0.62710000      -2.48010000
H       -1.88020000       1.00960000      -1.79920000
H        1.72790000      -0.39130000      -1.43450000
H       -1.60440000      -2.79120000      -0.58430000
