27
Properties=species:S:1:pos:R:3 gdb_59640=T pbc="F F F"
C       -0.08380000       1.58890000      -0.04580000
C       -0.05450000       0.05390000       0.00510000
C       -1.48580000      -0.49920000       0.06730000
C        0.74250000      -0.53500000      -1.17240000
C        2.23130000      -0.07850000      -1.22850000
C        3.04950000      -1.29870000      -1.73000000
C        2.00990000      -2.35790000      -2.15500000
C        2.52550000      -3.79520000      -2.12970000
C        0.82950000      -2.07350000      -1.21290000
H        0.92220000       2.01820000      -0.03900000
H       -0.58900000       1.93810000      -0.95480000
H       -0.62770000       1.99950000       0.81150000
H        0.46350000      -0.24380000       0.93010000
H       -2.03730000      -0.26020000      -0.85060000
H       -1.49990000      -1.58580000       0.19080000
H       -2.03820000      -0.06160000       0.90570000
H        0.24840000      -0.20900000      -2.10000000
H        2.35520000       0.79170000      -1.87910000
H        2.57380000       0.22940000      -0.23420000
H        3.73790000      -1.04410000      -2.54140000
H        3.66310000      -1.70340000      -0.91580000
H        1.68020000      -2.12490000      -3.17800000
H        2.85380000      -4.07450000      -1.12130000
H        1.75010000      -4.50570000      -2.43620000
H        3.37910000      -3.92540000      -2.80400000
H        1.05760000      -2.46390000      -0.20940000
H       -0.09820000      -2.55060000      -1.54270000
