19
Properties=species:S:1:pos:R:3 gdb_51615=T pbc="F F F"
O       -0.34940000       0.41130000       0.57910000
C        0.27620000       0.88340000      -0.33580000
C        1.42870000       1.85410000      -0.17470000
C        1.22480000       3.12440000      -0.99660000
C        2.44500000       4.05350000      -1.19230000
C        2.25720000       3.73240000      -2.67080000
C        2.28070000       4.63160000      -3.86070000
C        3.25410000       3.46290000      -3.74590000
O        1.16070000       2.84650000      -2.41990000
H        0.03840000       0.62940000      -1.39130000
H        1.54440000       2.09360000       0.88710000
H        2.34250000       1.35770000      -0.52910000
H        0.31710000       3.64680000      -0.66930000
H        2.29420000       5.09630000      -0.90800000
H        3.37330000       3.68440000      -0.74960000
H        1.46630000       4.53150000      -4.57010000
H        2.66150000       5.64120000      -3.74280000
H        4.30110000       3.67200000      -3.54970000
H        3.07330000       2.60220000      -4.38090000
