22
Properties=species:S:1:pos:R:3 gdb_87229=T pbc="F F F"
C       -0.04220000       1.44780000      -0.25940000
C        0.06220000      -0.02800000       0.05950000
C        1.38010000      -0.76390000      -0.02100000
C        0.69970000      -0.57970000       1.32150000
C        1.32230000       0.36560000       2.33370000
C        0.02670000      -1.80530000       1.92370000
C        1.01890000      -2.76130000       2.62580000
C        0.36720000      -3.96850000       3.12720000
N       -0.16660000      -4.91700000       3.51600000
H        0.86250000       1.99730000       0.01420000
H       -0.19560000       1.59380000      -1.33420000
H       -0.88640000       1.91320000       0.26150000
H       -0.79860000      -0.59790000      -0.28390000
H        1.39940000      -1.75310000      -0.46830000
H        2.27080000      -0.17470000      -0.21790000
H        1.77430000       1.23670000       1.85500000
H        0.57380000       0.72890000       3.04810000
H        2.11580000      -0.12570000       2.90810000
H       -0.74020000      -1.49860000       2.64520000
H       -0.49020000      -2.36480000       1.13740000
H        1.81130000      -3.05500000       1.92790000
H        1.50950000      -2.26310000       3.46840000
