18
Properties=species:S:1:pos:R:3 gdb_55703=T pbc="F F F"
O       -0.07870000       1.20320000       0.30180000
C        0.01340000      -0.10440000       0.01110000
C        0.96900000      -0.45290000      -1.12480000
C        2.35860000       0.19000000      -0.93330000
O        2.33580000       1.36460000      -0.32200000
O        3.36540000      -0.34210000      -1.33600000
C        0.15940000      -0.91260000       1.38870000
N       -1.33290000      -0.63530000       1.52250000
H       -1.92620000      -1.19660000       2.12970000
H       -1.36470000       0.37920000       1.71540000
C       -1.45520000      -0.70060000       0.00600000
H        1.36360000       1.52970000      -0.01670000
H        1.10470000      -1.52830000      -1.26640000
H        0.55110000      -0.04060000      -2.05180000
H        0.30500000      -1.99300000       1.32390000
H        0.75140000      -0.45090000       2.17720000
H       -2.24410000      -0.06030000      -0.38600000
H       -1.56630000      -1.74640000      -0.28870000
