16
Properties=species:S:1:pos:R:3 gdb_125989=T pbc="F F F"
C       -0.32250000       1.57830000      -0.02040000
C        0.08420000       0.11360000       0.07340000
C        0.74920000      -0.54460000      -1.21740000
N        1.95920000      -0.67920000      -0.38600000
N        3.11950000      -1.36120000      -0.15730000
C        3.19910000      -1.18080000       1.16300000
O        4.25670000      -1.62870000       1.84940000
N        2.16910000      -0.51180000       1.78880000
C        1.41450000      -0.23510000       0.73820000
H        0.49500000       2.18920000      -0.41520000
H       -1.19080000       1.69770000      -0.67600000
H       -0.58920000       1.96700000       0.96660000
H       -0.74120000      -0.49800000       0.44960000
H        0.31180000      -1.50190000      -1.51120000
H        0.87460000       0.10340000      -2.08840000
H        4.09880000      -1.39770000       2.77280000
