27
Properties=species:S:1:pos:R:3 gdb_123132=T pbc="F F F"
C       -0.04430000       1.57190000      -0.02580000
C        0.03450000       0.04030000       0.03740000
C        0.90070000      -0.40490000       1.22430000
C       -1.37870000      -0.57050000       0.07560000
C       -1.43630000      -2.09760000      -0.04880000
C       -2.86850000      -2.64180000      -0.10730000
C       -2.92950000      -4.16740000      -0.22570000
C       -4.35270000      -4.70540000      -0.28580000
O       -4.28500000      -6.12010000      -0.39430000
H        0.95320000       2.01960000      -0.08920000
H       -0.61930000       1.90730000      -0.89540000
H       -0.53170000       1.97590000       0.87000000
H        0.52200000      -0.30870000      -0.88510000
H        0.44460000      -0.10160000       2.17490000
H        1.03720000      -1.48970000       1.25120000
H        1.89520000       0.05110000       1.17540000
H       -1.87500000      -0.26190000       1.00770000
H       -1.97030000      -0.13030000      -0.73900000
H       -0.89440000      -2.40950000      -0.95270000
H       -0.91420000      -2.56560000       0.79480000
H       -3.41370000      -2.32130000       0.79170000
H       -3.39450000      -2.18570000      -0.95770000
H       -2.39610000      -4.49820000      -1.12550000
H       -2.41900000      -4.63330000       0.62630000
H       -4.90350000      -4.40170000       0.62000000
H       -4.88050000      -4.26490000      -1.14800000
H       -5.18280000      -6.46160000      -0.43450000
