23
Properties=species:S:1:pos:R:3 gdb_39309=T pbc="F F F"
C        0.04340000       1.56400000      -0.12270000
C        1.32100000       0.77100000      -0.02610000
C        2.15990000       0.80340000       1.24300000
C        1.31780000       0.70670000       2.52520000
C        0.44040000      -0.54720000       2.51870000
C       -0.84870000      -0.46710000       3.38470000
C       -1.66480000      -0.14470000       2.10190000
C       -0.46520000      -0.65410000       1.24810000
C       -0.01670000       0.05510000      -0.01660000
H       -0.26490000       2.15610000       0.73220000
H       -0.21240000       2.01330000      -1.07630000
H        1.90380000       0.69310000      -0.93990000
H        2.86970000      -0.03520000       1.21890000
H        2.76540000       1.71840000       1.26280000
H        1.97430000       0.69940000       3.40290000
H        0.69460000       1.60450000       2.62660000
H        1.07290000      -1.42380000       2.69530000
H       -1.11850000      -1.43530000       3.81570000
H       -0.85930000       0.27880000       4.18490000
H       -2.62340000      -0.65360000       1.97210000
H       -1.83090000       0.92850000       1.97510000
H       -0.61840000      -1.71180000       1.01100000
H       -0.28700000      -0.45250000      -0.93820000
