23
Properties=species:S:1:pos:R:3 gdb_104174=T pbc="F F F"
C        0.10150000       1.46070000       0.24750000
C        0.07480000      -0.04570000      -0.02140000
C        0.69280000      -0.46130000      -1.36350000
C        0.01010000       0.15410000      -2.58230000
O        2.07990000      -0.10610000      -1.41100000
C        2.83780000      -1.28620000      -1.21030000
C        1.93080000      -2.37850000      -1.77730000
C        2.12110000      -3.76950000      -1.20070000
O        0.63820000      -1.88710000      -1.43150000
H        1.11960000       1.84940000       0.15300000
H       -0.53800000       2.01250000      -0.44850000
H       -0.25290000       1.67720000       1.25970000
H        0.62890000      -0.57620000       0.76080000
H       -0.95180000      -0.42840000       0.01080000
H        0.14920000       1.23770000      -2.59830000
H        0.44460000      -0.26180000      -3.49460000
H       -1.06110000      -0.06550000      -2.56980000
H        3.79010000      -1.18210000      -1.73760000
H        3.03910000      -1.46350000      -0.14190000
H        2.03850000      -2.40920000      -2.87380000
H        2.02070000      -3.75040000      -0.11150000
H        1.37240000      -4.45720000      -1.60280000
H        3.11240000      -4.15730000      -1.45700000
