15
Properties=species:S:1:pos:R:3 gdb_48939=T pbc="F F F"
O       -0.38500000       0.54390000      -0.67980000
C        0.15100000       1.11040000       0.24490000
C        1.31700000       1.98900000       0.09110000
O        1.75630000       2.80890000       1.13610000
C        2.55720000       3.59600000       0.13690000
C        3.93490000       2.99950000       0.21420000
C        3.87830000       1.76760000      -0.31900000
C        2.53940000       1.53230000      -0.88870000
C        1.82990000       2.84130000      -1.01670000
H       -0.19730000       1.00040000       1.29420000
H        2.41250000       4.66240000       0.29310000
H        4.74330000       3.42320000       0.79410000
H        4.64640000       1.00660000      -0.26420000
H        2.28540000       0.70700000      -1.54010000
H        1.33000000       3.23210000      -1.89360000
