15
Properties=species:S:1:pos:R:3 gdb_53637=T pbc="F F F"
C       -0.09070000       1.44100000       0.01170000
C       -0.06450000      -0.01370000       0.00270000
C       -0.04490000      -1.21640000      -0.00470000
C        0.01890000      -2.66500000      -0.01380000
O       -1.33210000      -3.19380000      -0.00380000
C       -1.40330000      -4.53580000      -0.00900000
O       -0.45130000      -5.27670000      -0.02110000
C       -2.78100000      -4.97690000       0.00170000
C       -3.90560000      -5.39900000       0.01030000
H        0.92560000       1.84990000       0.00440000
H       -0.61380000       1.83440000      -0.86630000
H       -0.59680000       1.82370000       0.90430000
H        0.53640000      -3.04390000      -0.90170000
H        0.55360000      -3.05430000       0.85940000
H       -4.90120000      -5.77120000       0.01790000
