25
Properties=species:S:1:pos:R:3 gdb_104885=T pbc="F F F"
C       -1.67520000       0.10640000      -0.17370000
C       -0.15990000       0.27880000      -0.01790000
C        0.71730000      -0.57900000      -0.95240000
C        0.41470000      -0.26790000      -2.42660000
O        0.63390000       1.11830000      -2.65980000
C        2.22150000      -0.35820000      -0.66170000
C        2.94310000      -1.60530000      -1.21140000
C        1.89670000      -2.75550000      -1.15600000
C        0.56210000      -2.10190000      -0.71290000
H       -2.02320000       0.44530000      -1.15440000
H       -1.98370000      -0.93710000      -0.04860000
H       -2.20600000       0.69800000       0.57910000
H        0.09510000       1.33230000      -0.17310000
H        0.12200000       0.03860000       1.01550000
H        1.05900000      -0.87890000      -3.07690000
H       -0.62630000      -0.54390000      -2.65370000
H        0.47990000       1.29530000      -3.59190000
H        2.58540000       0.57570000      -1.09690000
H        2.36370000      -0.28970000       0.42370000
H        3.27140000      -1.43670000      -2.24190000
H        3.84460000      -1.83820000      -0.63790000
H        1.79500000      -3.23550000      -2.13400000
H        2.19550000      -3.54390000      -0.45940000
H        0.39680000      -2.27180000       0.35730000
H       -0.30210000      -2.52760000      -1.23350000
