21
Properties=species:S:1:pos:R:3 gdb_56190=T pbc="F F F"
C       -0.05120000       1.50650000      -0.14510000
C        0.09060000       0.00500000       0.03630000
O        1.16790000      -0.52040000       0.19820000
C       -1.20250000      -0.80320000       0.00340000
C       -0.98860000      -2.31250000       0.12510000
C       -2.29250000      -3.09860000       0.11320000
C       -3.04980000      -3.23540000      -1.23020000
O       -2.98460000      -4.67350000      -1.17660000
C       -2.19700000      -4.63940000       0.03110000
H        0.92480000       1.98460000      -0.05600000
H       -0.47940000       1.72940000      -1.12910000
H       -0.73780000       1.92300000       0.60040000
H       -1.84910000      -0.43270000       0.81260000
H       -1.73900000      -0.55150000      -0.92270000
H       -0.34250000      -2.65260000      -0.69280000
H       -0.43480000      -2.52160000       1.04730000
H       -2.94500000      -2.76410000       0.92580000
H       -4.08430000      -2.87190000      -1.25400000
H       -2.51390000      -2.83370000      -2.10270000
H       -1.18170000      -5.02800000      -0.12930000
H       -2.66790000      -5.20430000       0.84460000
