19
Properties=species:S:1:pos:R:3 gdb_102246=T pbc="F F F"
C        0.35470000       1.50680000       0.05580000
C        0.14910000      -0.00850000       0.06860000
C       -1.33570000      -0.42260000      -0.06300000
N       -1.94660000       0.05030000      -1.29900000
C       -2.88310000       1.05530000      -1.30220000
N       -3.39590000       1.34890000      -2.56080000
O       -3.20330000       1.67480000      -0.30320000
C       -1.48460000      -1.87600000       0.05720000
C       -1.56860000      -3.07280000       0.13250000
H        1.41280000       1.75130000       0.18810000
H        0.02360000       1.94390000      -0.89020000
H       -0.21120000       1.99070000       0.85770000
H        0.71860000      -0.48110000      -0.74150000
H        0.52920000      -0.43810000       1.00220000
H       -1.90450000       0.07170000       0.73250000
H       -1.68470000      -0.40440000      -2.15820000
H       -3.48180000       0.59360000      -3.22460000
H       -4.21210000       1.93940000      -2.50810000
H       -1.66100000      -4.12740000       0.21670000
