17
Properties=species:S:1:pos:R:3 gdb_8222=T pbc="F F F"
C        0.00600000       1.51460000       0.06460000
C        0.01520000      -0.00460000       0.12610000
O        0.14380000      -0.61130000       1.17230000
N       -0.14950000      -0.63450000      -1.08240000
C       -0.19830000      -2.06250000      -1.21790000
C       -1.36660000      -2.69740000      -2.01030000
O       -0.44770000      -3.44820000      -2.82730000
C        0.68650000      -2.73880000      -2.29250000
H        0.09650000       1.91470000      -0.94880000
H       -0.92750000       1.88030000       0.50320000
H        0.82620000       1.89350000       0.67760000
H       -0.25270000      -0.07170000      -1.91160000
H       -0.06940000      -2.47460000      -0.21820000
H       -2.05520000      -3.34370000      -1.45530000
H       -1.94940000      -1.97270000      -2.59840000
H        1.11730000      -2.03470000      -3.01990000
H        1.47320000      -3.41500000      -1.94040000
