16
Properties=species:S:1:pos:R:3 gdb_46215=T pbc="F F F"
O        0.02120000      -0.01450000       0.13190000
C        0.03870000       1.18270000       0.03360000
N       -0.95930000       2.13480000      -0.07070000
C       -0.06650000       3.29970000       0.01360000
C        1.09190000       2.28580000       0.02200000
C        2.38520000       2.40530000       0.79360000
C        3.15210000       1.08940000       0.63750000
O        3.06840000       1.17350000      -0.81660000
C        2.39290000       2.41710000      -0.71510000
H       -1.95470000       2.05840000       0.07350000
H       -0.11840000       3.96630000      -0.85350000
H       -0.17500000       3.88240000       0.93530000
H        2.56850000       3.18390000       1.52230000
H        4.19580000       1.15270000       0.96080000
H        2.67720000       0.18380000       1.02330000
H        2.59440000       3.18190000      -1.45750000
