21
Properties=species:S:1:pos:R:3 gdb_117824=T pbc="F F F"
C        0.15700000       1.46140000      -0.17510000
O        0.07120000       0.05640000      -0.10890000
C        0.78710000      -0.49320000       0.97240000
C        0.58110000      -2.01110000       0.95020000
C        1.19860000      -2.65440000      -0.28610000
O        1.15350000      -2.44130000       2.18980000
C        1.22670000      -3.84180000       2.39920000
C       -0.92840000      -2.29030000       1.05520000
O       -1.53670000      -3.08120000       0.38490000
H        1.19730000       1.79800000      -0.30320000
H       -0.42950000       1.78310000      -1.03860000
H       -0.24960000       1.93640000       0.73100000
H        1.86260000      -0.26530000       0.90660000
H        0.42130000      -0.09790000       1.93390000
H        2.29010000      -2.60980000      -0.22500000
H        0.88070000      -3.69200000      -0.40150000
H        0.87330000      -2.10430000      -1.17160000
H        1.55950000      -3.97800000       3.43080000
H        0.25450000      -4.33630000       2.27250000
H        1.95070000      -4.32210000       1.72910000
H       -1.41600000      -1.72800000       1.88400000
