17
Properties=species:S:1:pos:R:3 gdb_54938=T pbc="F F F"
N       -0.19270000       1.45650000      -0.07940000
C       -0.00820000       0.11820000       0.07350000
O        1.06590000      -0.37620000       0.36650000
C       -1.25020000      -0.73800000      -0.17380000
C       -1.45520000      -1.10950000      -1.67450000
C       -0.98100000      -2.52380000      -1.27610000
N       -1.03540000      -2.15930000       0.16850000
C       -1.91460000      -3.67300000      -1.58900000
O       -2.74860000      -3.65960000      -2.45740000
H        0.59120000       2.07390000       0.05380000
H       -1.09230000       1.85270000      -0.28830000
H       -2.11710000      -0.28970000       0.32770000
H       -2.49230000      -1.09060000      -2.01080000
H       -0.83160000      -0.57100000      -2.38850000
H        0.02500000      -2.77990000      -1.63800000
H       -0.13980000      -2.26800000       0.63920000
H       -1.78220000      -4.55120000      -0.91700000
