16
Properties=species:S:1:pos:R:3 gdb_12745=T pbc="F F F"
C       -0.08070000       1.54740000      -0.01970000
C        0.03020000       0.05320000       0.03990000
C       -0.83360000      -0.83690000       0.90700000
C        0.65480000      -0.92420000       1.02710000
N        1.14160000      -1.81910000      -0.05140000
C        0.68350000      -0.80650000      -1.06440000
C       -0.17580000      -1.33560000      -2.12700000
N       -0.86860000      -1.72710000      -2.96510000
H        0.86430000       2.01260000      -0.32280000
H       -0.85250000       1.85840000      -0.73380000
H       -0.35540000       1.95430000       0.95840000
H       -1.34100000      -0.30480000       1.70560000
H       -1.38350000      -1.67440000       0.48670000
H        1.21520000      -0.76620000       1.94050000
H        2.15500000      -1.87390000      -0.06330000
H        1.51900000      -0.26920000      -1.52600000
