17
Properties=species:S:1:pos:R:3 gdb_37249=T pbc="F F F"
C       -0.06920000       1.49340000       0.02510000
C        1.25590000       0.74020000       0.04360000
C       -0.04410000       0.01120000      -0.06410000
O       -0.51220000      -0.82940000       1.00860000
C       -0.98470000      -1.80620000       0.06770000
C       -2.46300000      -1.64610000      -0.40490000
O       -2.74310000      -0.25050000      -0.48800000
C       -2.02060000      -0.84160000      -1.56470000
C       -0.52940000      -0.95560000      -1.14130000
H       -0.41600000       1.91730000       0.96090000
H       -0.33890000       2.06280000      -0.85820000
H        1.89990000       0.78900000      -0.82900000
H        1.77770000       0.67180000       0.99220000
H       -0.64310000      -2.82340000       0.26990000
H       -3.30570000      -2.31470000      -0.26750000
H       -2.43570000      -0.74030000      -2.56090000
H        0.17310000      -1.32130000      -1.88790000
