16
Properties=species:S:1:pos:R:3 gdb_125503=T pbc="F F F"
C       -0.05550000       1.46660000      -0.03140000
C       -0.01570000      -0.02460000       0.02660000
N       -0.00520000      -0.75860000      -1.06890000
N        0.02100000      -2.04580000      -0.63480000
C        0.03620000      -3.13130000      -1.50900000
O        0.03440000      -3.06370000      -2.70580000
C        0.03540000      -2.12580000       0.74880000
C        0.01140000      -0.83980000       1.21180000
N       -0.06610000      -0.36130000       2.52090000
H        0.83500000       1.91180000       0.43010000
H       -0.10130000       1.79580000      -1.07080000
H       -0.92860000       1.85920000       0.50220000
H        0.05080000      -4.07860000      -0.93710000
H        0.05650000      -3.07670000       1.25620000
H        0.24090000      -1.02470000       3.21910000
H        0.41050000       0.52090000       2.65280000
