23
Properties=species:S:1:pos:R:3 gdb_115474=T pbc="F F F"
C        0.29140000       1.49650000      -0.37990000
C       -0.17150000       0.11410000       0.11450000
C        0.62270000      -0.40120000       1.27980000
C        0.17440000      -0.62550000       2.51700000
C        1.24000000      -1.18220000       3.43430000
C        2.53570000      -1.00040000       2.61580000
C        2.08500000      -0.78680000       1.15330000
O        1.38420000      -0.49560000       4.67320000
C        0.40050000      -0.81890000       5.62520000
H        1.33380000       1.47730000      -0.71240000
H       -0.32010000       1.83000000      -1.22390000
H        0.20840000       2.24240000       0.41660000
H       -1.23070000       0.16330000       0.39070000
H       -0.09930000      -0.59980000      -0.71830000
H       -0.85040000      -0.47080000       2.83800000
H        1.04230000      -2.24690000       3.65530000
H        3.02450000      -0.10000000       2.99890000
H        3.23280000      -1.83250000       2.73710000
H        2.18030000      -1.70760000       0.56030000
H        2.68350000      -0.03030000       0.63330000
H        0.37690000      -1.90030000       5.83700000
H        0.65270000      -0.28670000       6.54630000
H       -0.60920000      -0.51170000       5.31240000
