21
Properties=species:S:1:pos:R:3 gdb_121757=T pbc="F F F"
C        0.05310000       1.43540000      -0.09130000
C       -0.03980000      -0.07210000       0.06690000
O        0.74630000      -0.45320000       1.18050000
C        0.72840000      -1.82390000       1.42500000
C        1.52990000      -2.14740000       2.68530000
O        1.88170000      -1.31400000       3.47430000
C        1.84070000      -3.63530000       2.84500000
O        2.29060000      -3.89810000       4.13730000
C        2.64610000      -5.24770000       4.32950000
H        1.09050000       1.73970000      -0.25440000
H       -0.54610000       1.76560000      -0.94500000
H       -0.31330000       1.93710000       0.80830000
H       -1.08710000      -0.38440000       0.21930000
H        0.31810000      -0.58190000      -0.84410000
H       -0.30110000      -2.20020000       1.58230000
H        1.13520000      -2.40340000       0.57470000
H        0.94030000      -4.22660000       2.59160000
H        2.60070000      -3.89960000       2.08430000
H        2.98330000      -5.34790000       5.36340000
H        1.79220000      -5.92420000       4.16550000
H        3.46180000      -5.55510000       3.65610000
