21
Properties=species:S:1:pos:R:3 gdb_113495=T pbc="F F F"
C       -0.06070000       1.55710000      -0.39810000
C       -0.05900000       0.14580000       0.20240000
C       -1.42090000      -0.51260000       0.14080000
C       -1.85530000      -1.27680000      -1.06910000
C       -1.54680000      -2.02530000       0.21170000
C       -0.48390000      -3.09850000       0.51370000
C       -1.52810000      -3.85350000       1.40190000
C       -2.55400000      -2.75460000       1.04980000
O       -3.70320000      -2.55400000       1.33180000
H        0.93260000       2.01230000      -0.33770000
H       -0.36090000       1.53650000      -1.45070000
H       -0.76080000       2.21040000       0.13330000
H        0.67130000      -0.47890000      -0.32670000
H        0.27720000       0.19290000       1.24620000
H       -2.21130000       0.01410000       0.67240000
H       -2.89670000      -1.23940000      -1.37150000
H       -1.14300000      -1.39370000      -1.88090000
H       -0.14590000      -3.66450000      -0.35720000
H        0.39140000      -2.73790000       1.05900000
H       -1.81370000      -4.85130000       1.05770000
H       -1.29090000      -3.91030000       2.46790000
