18
Properties=species:S:1:pos:R:3 gdb_46923=T pbc="F F F"
O       -0.03920000      -0.09930000       0.30440000
C       -0.00660000       1.07880000       0.04120000
N       -1.14150000       1.85580000       0.12130000
C       -1.42000000       3.25090000      -0.21220000
C       -0.87160000       3.65790000      -1.56420000
C       -0.03690000       4.90720000      -1.68930000
C        0.62460000       3.55160000      -1.73000000
C        1.38730000       3.03100000      -0.54200000
O        1.17930000       1.62510000      -0.34110000
H       -1.91360000       1.29930000       0.44980000
H       -2.50840000       3.35800000      -0.20200000
H       -1.04630000       3.92660000       0.56810000
H       -1.47890000       3.37000000      -2.41610000
H       -0.09030000       5.47180000      -2.61270000
H        0.09880000       5.51920000      -0.80260000
H        0.99060000       3.20510000      -2.69110000
H        2.46620000       3.11780000      -0.69260000
H        1.14200000       3.58330000       0.37150000
