14
Properties=species:S:1:pos:R:3 gdb_24905=T pbc="F F F"
N       -0.08380000       1.23340000      -0.05720000
C        0.00010000      -0.02780000       0.03190000
C       -1.25540000      -0.95060000       0.00340000
C       -0.58130000      -2.27380000      -0.07100000
C        0.75520000      -2.16660000       0.01840000
N        1.15610000      -0.83310000       0.16760000
N        1.35670000      -3.39970000       0.04960000
C        0.33110000      -4.20380000      -0.02280000
O       -0.89030000      -3.60230000      -0.08220000
H        0.83370000       1.68050000      -0.01910000
H       -1.84470000      -0.79710000       0.91500000
H       -1.89120000      -0.68270000      -0.84560000
H        2.04940000      -0.49240000      -0.15320000
H        0.33580000      -5.28110000      -0.05170000
