18
Properties=species:S:1:pos:R:3 gdb_42011=T pbc="F F F"
C        0.03460000       1.39350000      -0.18490000
C        1.50600000       1.85790000      -0.01170000
C        2.12030000       0.68930000       0.76550000
O        3.48750000       0.42870000       0.46310000
C        3.76180000      -0.93040000       0.15780000
C        2.87700000      -1.88070000       0.94900000
O        1.50030000      -1.70860000       0.57870000
C        1.15560000      -0.42380000       0.37820000
N        0.03950000      -0.07640000      -0.11280000
H       -0.60730000       1.79330000       0.61150000
H       -0.40290000       1.71770000      -1.13390000
H        2.00890000       1.92250000      -0.98170000
H        1.60700000       2.82050000       0.49310000
H        2.04180000       0.85490000       1.85240000
H        3.61640000      -1.12590000      -0.91650000
H        4.81550000      -1.10600000       0.39760000
H        3.12040000      -2.92190000       0.72540000
H        2.99770000      -1.71610000       2.02790000
