17
Properties=species:S:1:pos:R:3 gdb_1613=T pbc="F F F"
C       -0.09110000       1.59760000       0.17010000
C       -0.00010000       0.06680000      -0.03970000
C       -1.35480000      -0.51820000      -0.00240000
N       -2.42550000      -0.95050000       0.03480000
N        0.69740000      -0.39830000      -1.23740000
C        0.12760000       0.05300000      -2.49820000
C        2.13760000      -0.21900000      -1.17100000
H        0.91080000       2.03440000       0.18060000
H       -0.67360000       2.07360000      -0.62210000
H       -0.57290000       1.81970000       1.12590000
H        0.54000000      -0.35840000       0.81590000
H        0.28840000       1.12580000      -2.70480000
H        0.58360000      -0.51400000      -3.31570000
H       -0.94790000      -0.14420000      -2.51140000
H        2.52500000      -0.64720000      -0.24080000
H        2.60160000      -0.75340000      -2.00580000
H        2.46730000       0.83450000      -1.22840000
