12
Properties=species:S:1:pos:R:3 gdb_154=T pbc="F F F"
O       -0.02550000       1.27900000       0.46230000
C        0.00040000      -0.00860000      -0.13620000
C       -1.39460000      -0.57120000      -0.11190000
C       -1.58900000      -2.03510000       0.03240000
N       -1.94970000      -1.12510000       1.13050000
H        0.84020000       1.68170000       0.34620000
H        0.35590000       0.04280000      -1.17810000
H        0.67650000      -0.69090000       0.40800000
H       -2.11630000       0.00010000      -0.69170000
H       -2.42760000      -2.52360000      -0.45510000
H       -0.70360000      -2.65850000       0.13520000
H       -1.23030000      -1.13870000       1.85020000
