16
Properties=species:S:1:pos:R:3 gdb_53138=T pbc="F F F"
C       -0.07180000       1.44920000       0.07390000
C       -0.03510000      -0.00530000       0.10120000
C       -0.01030000      -1.20990000       0.11150000
C        0.02000000      -2.64460000       0.13450000
C       -0.51000000      -3.46380000       1.28820000
N       -1.68070000      -2.85000000       1.91210000
C       -2.38760000      -2.82880000       0.68500000
O       -3.46820000      -2.40760000       0.39690000
C       -1.24090000      -3.52790000      -0.03530000
H        0.53970000       1.84290000      -0.74530000
H       -1.09450000       1.81440000      -0.07010000
H        0.30810000       1.87840000       1.00760000
H        0.88330000      -3.09580000      -0.35290000
H        0.05260000      -4.23680000       1.79500000
H       -1.61280000      -2.02260000       2.49540000
H       -1.29000000      -4.31190000      -0.77720000
