17
Properties=species:S:1:pos:R:3 gdb_51927=T pbc="F F F"
O        0.53270000      -0.15000000       0.61910000
C        0.36150000       1.04310000       0.48750000
N        1.14350000       1.86810000      -0.25970000
C        2.34690000       1.39420000      -0.93650000
C        3.52650000       2.18920000      -0.61400000
C        4.49050000       2.86610000      -0.35580000
C        5.65910000       3.64490000      -0.06040000
C        5.95790000       4.02710000       1.35450000
N        6.79300000       3.03360000       0.67780000
H       -0.47190000       1.59290000       0.96670000
H        0.95050000       2.85690000      -0.26130000
H        2.47290000       0.35250000      -0.62390000
H        2.19350000       1.38440000      -2.02410000
H        5.98230000       4.32060000      -0.84810000
H        6.44270000       4.97930000       1.55000000
H        5.25830000       3.69890000       2.11730000
H        6.52310000       2.09870000       0.97510000
