20
Properties=species:S:1:pos:R:3 gdb_107854=T pbc="F F F"
O       -0.04370000       1.39400000      -0.05090000
C       -0.02640000      -0.02770000      -0.02590000
C       -1.45350000      -0.50180000      -0.05050000
C       -2.35550000      -0.42940000      -1.30570000
C       -3.01910000      -1.61630000      -0.61470000
C       -3.35510000      -1.26660000       0.89510000
C       -2.35310000      -2.38640000       1.22610000
N       -1.65570000      -2.04150000      -0.05960000
C       -2.43450000      -0.04020000       1.05540000
H        0.86590000       1.70410000      -0.07430000
H        0.51290000      -0.44430000      -0.88920000
H        0.46380000      -0.41050000       0.88500000
H       -2.91830000       0.48800000      -1.48610000
H       -1.83360000      -0.75190000      -2.20980000
H       -3.62140000      -2.37130000      -1.12200000
H       -4.36820000      -1.22290000       1.29790000
H       -1.75810000      -2.30750000       2.14270000
H       -2.75710000      -3.39920000       1.13440000
H       -1.98770000       0.02460000       2.05180000
H       -2.89700000       0.92000000       0.81960000
