19
Properties=species:S:1:pos:R:3 gdb_35258=T pbc="F F F"
N       -0.29500000      -1.21270000       0.39440000
C       -0.19160000      -0.06770000       0.26370000
C       -0.07340000       1.35660000       0.06210000
C        0.53080000       2.19690000       1.14840000
N        1.24370000       1.99350000      -0.09880000
C        2.42720000       1.14570000      -0.06320000
C        2.92340000       0.59120000      -1.42120000
C        4.37380000       0.91830000      -0.96890000
C        3.78060000       1.88290000       0.09570000
H       -0.85670000       1.77530000      -0.56320000
H        0.13510000       3.19310000       1.32270000
H        0.87860000       1.67000000       2.03520000
H        2.33370000       0.33620000       0.67630000
H        2.67380000      -0.44280000      -1.66590000
H        2.59860000       1.24410000      -2.23600000
H        4.86350000       0.05510000      -0.51080000
H        5.04840000       1.34610000      -1.71260000
H        3.70000000       2.90430000      -0.28580000
H        4.23510000       1.90540000       1.08870000
