18
Properties=species:S:1:pos:R:3 gdb_96229=T pbc="F F F"
O        0.07300000       1.33850000       0.26680000
C       -0.04250000      -0.06410000      -0.00080000
C       -1.52910000      -0.44180000      -0.02010000
C       -2.39590000       0.45780000      -0.93180000
N       -1.64020000       0.97230000      -2.08840000
C       -1.04130000      -0.03630000      -2.88030000
C        0.14090000      -0.59340000      -2.57780000
C        0.79740000      -0.40230000      -1.26810000
O        1.99640000      -0.55330000      -1.11560000
H        1.01600000       1.53450000       0.32320000
H        0.45300000      -0.63290000       0.79800000
H       -1.59590000      -1.48990000      -0.33100000
H       -1.91180000      -0.39420000       1.00510000
H       -3.27680000      -0.08940000      -1.28320000
H       -2.75260000       1.32870000      -0.37660000
H       -0.91000000       1.55950000      -1.69460000
H       -1.58640000      -0.31960000      -3.78000000
H        0.66390000      -1.23450000      -3.28130000
