23
Properties=species:S:1:pos:R:3 gdb_101447=T pbc="F F F"
C        0.17440000       1.31330000      -0.00890000
O        0.00420000      -0.03750000       0.36980000
C       -1.29520000      -0.58840000       0.10420000
C       -1.60360000      -0.65520000      -1.39370000
C       -1.35570000      -1.96430000       0.76460000
C       -0.20440000      -2.95900000       0.42180000
C        0.41380000      -2.72440000       1.82740000
C       -0.89320000      -2.00710000       2.26440000
O       -0.80450000      -0.80400000       2.98090000
H        1.13060000       1.64330000       0.40510000
H        0.20550000       1.44110000      -1.09860000
H       -0.62700000       1.95090000       0.39430000
H       -2.04160000       0.05730000       0.59640000
H       -2.58550000      -1.11210000      -1.54990000
H       -1.62820000       0.33700000      -1.85240000
H       -0.85640000      -1.25850000      -1.91810000
H       -2.36450000      -2.35440000       0.59640000
H       -0.56510000      -3.97910000       0.27020000
H        0.42930000      -2.68790000      -0.42500000
H        0.71570000      -3.60320000       2.40280000
H        1.24920000      -2.02100000       1.79080000
H       -1.53990000      -2.66340000       2.85480000
H       -0.25830000      -0.22170000       2.43620000
