17
Properties=species:S:1:pos:R:3 gdb_14328=T pbc="F F F"
O        0.03410000       0.01610000      -0.45710000
C       -0.00250000       1.18020000      -0.16190000
C       -1.26680000       2.04710000      -0.03070000
C       -0.75330000       3.48610000       0.11560000
C       -1.00760000       4.19890000       1.46560000
C        0.39280000       3.69490000       1.89130000
N        0.70660000       3.39350000       0.47090000
C        1.21620000       2.07410000       0.14470000
H       -1.92490000       1.88200000      -0.88690000
H       -1.80930000       1.70440000       0.85890000
H       -0.94460000       4.07400000      -0.78770000
H       -1.05910000       5.28430000       1.36670000
H       -1.86050000       3.85130000       2.05080000
H        1.07240000       4.41680000       2.35490000
H        0.34900000       2.80130000       2.53270000
H        1.80480000       1.64110000       0.96110000
H        1.86380000       2.08980000      -0.74290000
