18
Properties=species:S:1:pos:R:3 gdb_104484=T pbc="F F F"
C        0.71620000       1.37870000       0.26160000
O        0.02220000       0.19650000      -0.10370000
C        0.56880000      -0.46290000      -1.21930000
C        0.17640000       0.30620000      -2.46980000
O        0.73000000       0.28050000      -3.54210000
C        1.97090000      -1.16230000      -1.11770000
C        1.36180000      -2.13180000      -0.06980000
C        0.35890000      -2.02410000      -1.24630000
N        1.54680000      -2.17310000      -2.16860000
H        1.74350000       1.16040000       0.58380000
H        0.75910000       2.10550000      -0.56310000
H        0.16870000       1.82530000       1.09400000
H       -0.73320000       0.92600000      -2.30380000
H        2.95640000      -0.69580000      -1.13490000
H        1.86930000      -3.09370000      -0.00330000
H        1.05480000      -1.72230000       0.88940000
H       -0.57970000      -2.55660000      -1.40420000
H        1.38140000      -1.69370000      -3.05510000
