12
Properties=species:S:1:pos:R:3 gdb_5363=T pbc="F F F"
O       -0.09010000      -0.00770000      -0.00250000
C        0.00650000       1.19010000       0.00610000
C        1.31090000       1.94300000      -0.00200000
N        2.45000000       1.24570000      -0.02010000
C        3.57130000       1.96390000      -0.02620000
C        3.56430000       3.35700000      -0.01460000
C        2.31890000       3.97430000       0.00400000
N        1.18340000       3.27450000       0.01050000
H       -0.87070000       1.86940000       0.02130000
H        4.50580000       1.40730000      -0.04110000
H        4.48330000       3.93060000      -0.01980000
H        2.22590000       5.05780000       0.01400000
