16
Properties=species:S:1:pos:R:3 gdb_43781=T pbc="F F F"
O        0.02650000       0.05350000      -0.03410000
C        0.02020000       1.25180000      -0.00290000
C       -1.20170000       2.20170000       0.01700000
C       -0.41680000       3.53550000       0.05480000
C        0.69750000       3.28550000      -1.01490000
C        1.19000000       2.22760000       0.02720000
C        0.68910000       3.23000000       1.11880000
C       -1.17840000       4.76370000       0.08370000
N       -1.77990000       5.75080000       0.10720000
H       -1.82020000       2.08500000      -0.87670000
H       -1.82720000       2.03880000       0.89860000
H        0.38260000       2.94200000      -2.00280000
H        1.38440000       4.12860000      -1.10040000
H        2.19190000       1.80760000       0.02020000
H        1.37500000       4.06740000       1.25360000
H        0.36640000       2.83560000       2.08510000
