21
Properties=species:S:1:pos:R:3 gdb_103526=T pbc="F F F"
C        0.14170000       1.57220000       0.04310000
C       -0.02040000       0.04920000       0.01470000
C       -1.48520000      -0.46480000       0.01590000
C       -2.23840000      -0.02680000       1.28800000
C       -2.23880000      -0.13370000      -1.25330000
C       -2.59250000      -1.20890000      -1.95910000
C       -2.15300000      -2.49390000      -1.31330000
C       -1.44740000      -2.01230000      -0.03720000
O       -0.93890000      -2.71590000       0.79700000
H        1.20210000       1.84010000       0.00350000
H       -0.34860000       2.04880000      -0.81220000
H       -0.27230000       2.01150000       0.95520000
H        0.48270000      -0.34580000      -0.87670000
H        0.48460000      -0.39890000       0.87810000
H       -2.32940000       1.06170000       1.34030000
H       -3.24980000      -0.44420000       1.30690000
H       -1.70790000      -0.37800000       2.17820000
H       -2.46590000       0.88870000      -1.53600000
H       -3.13980000      -1.18430000      -2.89460000
H       -2.98010000      -3.16820000      -1.05570000
H       -1.46070000      -3.08700000      -1.92510000
