20
Properties=species:S:1:pos:R:3 gdb_81571=T pbc="F F F"
C       -0.99700000       1.40410000       0.07330000
N       -0.76290000      -0.02860000      -0.03560000
C       -1.40330000      -0.99690000       0.94610000
C       -0.33190000      -2.00950000       0.45270000
C        0.38520000      -0.65830000       0.72210000
C       -0.40890000      -0.59980000       2.07850000
C       -0.60880000       0.60730000       2.97220000
C        0.65290000       1.29880000       3.46310000
O       -1.71320000       0.93210000       3.35030000
H       -0.85800000       1.85640000       1.06410000
H       -0.32480000       1.91290000      -0.62640000
H       -2.02440000       1.61450000      -0.24080000
H       -2.48370000      -1.12210000       1.01350000
H       -0.09180000      -2.84700000       1.10910000
H       -0.40840000      -2.28320000      -0.59840000
H        1.42600000      -0.39320000       0.52550000
H       -0.14870000      -1.42380000       2.75900000
H        1.32930000       0.57160000       3.92670000
H        1.19660000       1.74310000       2.62210000
H        0.39450000       2.07470000       4.18480000
