12
Properties=species:S:1:pos:R:3 gdb_24863=T pbc="F F F"
N       -0.31940000       1.32180000       0.08600000
C       -0.02460000       0.11760000      -0.15120000
O        1.18510000      -0.26570000      -0.67000000
C        1.47510000      -1.59640000      -1.01460000
O        2.50440000      -2.07760000      -0.66610000
N        0.57040000      -2.16710000      -1.90600000
C       -0.66090000      -2.29090000      -1.60910000
N       -1.29040000      -2.00770000      -0.39480000
C       -1.00020000      -0.94340000       0.24550000
H        0.41800000       1.95570000      -0.22830000
H       -1.32950000      -2.72700000      -2.35050000
H       -1.53460000      -0.73180000       1.17090000
