18
Properties=species:S:1:pos:R:3 gdb_100742=T pbc="F F F"
N        0.01910000       1.29480000       0.11560000
C        0.07250000      -0.04420000      -0.03840000
O        1.09740000      -0.67680000      -0.25170000
C       -1.27030000      -0.80370000       0.02290000
O       -0.99760000      -2.17570000      -0.04680000
C       -2.07610000      -0.48850000       1.29200000
O       -2.51360000       0.86520000       1.20470000
C       -3.28980000      -1.40020000       1.43250000
O       -4.02270000      -0.88620000       2.54550000
H        0.88790000       1.80350000       0.14840000
H       -0.83110000       1.71450000       0.46640000
H       -1.87920000      -0.47600000      -0.83700000
H       -0.03390000      -2.21720000      -0.19380000
H       -1.43480000      -0.62680000       2.17670000
H       -3.21510000       0.95390000       1.86340000
H       -3.88890000      -1.35600000       0.51120000
H       -2.96560000      -2.43340000       1.59500000
H       -4.88640000      -1.30670000       2.56730000
