23
Properties=species:S:1:pos:R:3 gdb_94942=T pbc="F F F"
C        0.45800000       1.41950000      -0.31420000
C       -0.09310000       0.05020000       0.08600000
O        0.07340000      -0.90740000      -0.97190000
C        1.22570000      -1.71380000      -0.72850000
C        1.48210000      -1.66820000       0.76470000
C        0.62640000      -0.53360000       1.29160000
C        0.33920000      -1.96030000       1.71620000
C       -0.91050000      -2.69710000       1.26510000
C        0.75290000      -2.30580000       3.13810000
H        1.54380000       1.38200000      -0.45070000
H        0.00330000       1.74620000      -1.25340000
H        0.23660000       2.16700000       0.45530000
H       -1.17680000       0.13040000       0.24220000
H        1.00550000      -2.71490000      -1.11800000
H        2.10310000      -1.32770000      -1.27060000
H        2.50020000      -1.81800000       1.10830000
H        1.00510000       0.16220000       2.03300000
H       -1.20000000      -2.44520000       0.24410000
H       -0.75220000      -3.78090000       1.31810000
H       -1.75220000      -2.46140000       1.92720000
H       -0.04290000      -2.05530000       3.84950000
H        0.95840000      -3.37820000       3.23640000
H        1.65450000      -1.76400000       3.44140000
