23
Properties=species:S:1:pos:R:3 gdb_56143=T pbc="F F F"
C       -0.13030000       1.44530000       0.01170000
C        0.07850000      -0.05070000       0.00130000
O        1.14510000      -0.61100000      -0.01210000
O       -1.10620000      -0.69670000       0.00910000
C       -1.04270000      -2.13600000       0.00040000
C       -2.46820000      -2.69960000       0.01110000
C       -3.23030000      -2.22830000      -1.24040000
C       -2.35360000      -4.23460000       0.00210000
C       -3.20620000      -2.24130000       1.28190000
H        0.83670000       1.94650000       0.00540000
H       -0.71400000       1.74920000      -0.86190000
H       -0.69750000       1.73930000       0.89940000
H       -0.49340000      -2.45950000      -0.89040000
H       -0.47630000      -2.46930000       0.87670000
H       -2.72900000      -2.56120000      -2.15620000
H       -4.24680000      -2.63530000      -1.24950000
H       -3.29940000      -1.13780000      -1.27130000
H       -1.81190000      -4.60130000       0.88100000
H       -3.34790000      -4.69260000       0.00930000
H       -1.82890000      -4.59220000      -0.89080000
H       -3.27450000      -1.15130000       1.32540000
H       -4.22230000      -2.64850000       1.30610000
H       -2.68740000      -2.58370000       2.18440000
