19
Properties=species:S:1:pos:R:3 gdb_69956=T pbc="F F F"
O       -0.12990000       1.45630000      -0.04160000
C        0.01340000       0.07120000       0.06530000
C       -0.17520000      -0.79200000      -1.14890000
C       -1.21280000      -0.80690000      -0.03050000
C       -1.13650000      -1.91100000       1.01340000
C       -0.64980000      -3.29250000       0.53410000
O        0.72090000      -2.95510000       0.85340000
C        0.29150000      -1.79530000       1.61500000
C        0.91090000      -0.46590000       1.18050000
H        0.61150000       1.79420000      -0.55540000
H       -0.47680000      -0.28430000      -2.05900000
H        0.47460000      -1.64930000      -1.28530000
H       -2.17270000      -0.35570000      -0.25180000
H       -1.98900000      -1.89730000       1.69400000
H       -1.00830000      -4.13230000       1.14420000
H       -0.78000000      -3.53110000      -0.52680000
H        0.39580000      -1.98480000       2.69010000
H        1.95610000      -0.60160000       0.88100000
H        0.88650000       0.24830000       2.01110000
