19
Properties=species:S:1:pos:R:3 gdb_46396=T pbc="F F F"
O        0.30750000       0.09420000       0.09210000
C        0.18100000       1.26150000      -0.09880000
O       -0.89940000       1.90920000      -0.64500000
C       -0.26950000       3.21910000      -0.46100000
C        0.98290000       2.54770000       0.13560000
C        1.37130000       2.84460000       1.58650000
C        2.44580000       1.90510000       2.09310000
C        3.90300000       2.22620000       1.86440000
C        3.31800000       2.30370000       3.25390000
H       -0.14790000       3.72780000      -1.41910000
H       -0.85530000       3.83160000       0.22870000
H        1.86100000       2.59870000      -0.51450000
H        1.72320000       3.88200000       1.65590000
H        0.47820000       2.77450000       2.22160000
H        2.17520000       0.85540000       2.02990000
H        4.58190000       1.41320000       1.63340000
H        4.14700000       3.16140000       1.36940000
H        3.17040000       3.28880000       3.68510000
H        3.59520000       1.54260000       3.97460000
