16
Properties=species:S:1:pos:R:3 gdb_46590=T pbc="F F F"
O        0.02480000      -0.00530000      -0.12330000
C        0.01360000       1.19500000      -0.05490000
C       -1.27100000       2.09260000      -0.11840000
N       -0.88310000       3.39420000      -0.71800000
C        0.56240000       3.45810000      -0.58050000
C        1.14610000       3.41270000       0.78720000
C        1.15170000       2.15430000      -0.06460000
O        2.23330000       2.17070000      -1.00850000
C        1.64870000       3.34030000      -1.65620000
H       -2.04110000       1.58590000      -0.70330000
H       -1.67360000       2.23010000       0.89340000
H       -1.12190000       3.39320000      -1.70340000
H        2.12170000       3.84330000       0.98700000
H        0.44180000       3.45330000       1.60980000
H        1.24800000       3.08060000      -2.64360000
H        2.36750000       4.16110000      -1.74790000
