18
Properties=species:S:1:pos:R:3 gdb_115199=T pbc="F F F"
O       -0.14030000       1.47590000      -0.07130000
C       -0.00110000       0.06500000      -0.09670000
C       -1.39970000      -0.53820000       0.05470000
C       -1.35380000      -2.05940000      -0.07970000
O       -2.60790000      -2.67670000       0.22540000
C       -3.20390000      -2.33680000       1.41060000
N       -4.10060000      -3.06890000       1.93590000
C       -2.82230000      -1.05310000       2.01000000
C       -2.02320000      -0.18950000       1.37930000
H        0.73730000       1.86870000      -0.07110000
H        0.44630000      -0.27560000      -1.04430000
H        0.64450000      -0.28950000       0.72260000
H       -2.01550000      -0.11760000      -0.75360000
H       -1.12070000      -2.36960000      -1.10130000
H       -0.58100000      -2.46650000       0.58860000
H       -4.24040000      -3.90630000       1.36620000
H       -3.28530000      -0.83660000       2.96500000
H       -1.80150000       0.78810000       1.79460000
