22
Properties=species:S:1:pos:R:3 gdb_87204=T pbc="F F F"
C       -0.03730000       1.67280000       0.15600000
C       -0.10220000       0.16170000       0.05020000
C       -1.45650000      -0.39200000      -0.35690000
N       -1.87830000       0.11060000      -1.66160000
C       -1.54910000      -0.70610000      -2.82350000
C       -2.94950000      -0.62070000      -2.32390000
C        1.14340000      -0.57910000      -0.41560000
C        0.69570000      -0.66280000       1.02380000
O        1.40340000       0.01770000       2.02040000
H        0.94310000       2.00080000       0.50510000
H       -0.24960000       2.12980000      -0.81400000
H       -0.78370000       2.04190000       0.86920000
H       -1.43370000      -1.49780000      -0.33360000
H       -2.21080000      -0.07180000       0.37410000
H       -1.24260000      -0.16630000      -3.71490000
H       -1.02330000      -1.64530000      -2.65750000
H       -3.35100000      -1.50260000      -1.82560000
H       -3.68880000      -0.01560000      -2.84130000
H        1.04020000      -1.45780000      -1.04370000
H        2.02240000       0.02340000      -0.62040000
H        0.25400000      -1.60490000       1.35280000
H        2.24980000      -0.42580000       2.13600000
