18
Properties=species:S:1:pos:R:3 gdb_66019=T pbc="F F F"
C       -0.12850000       1.54090000       0.02010000
C       -0.05450000       0.00820000      -0.00770000
C        1.14910000      -0.51780000      -0.86800000
C        1.99910000      -0.66760000       0.41760000
C        0.68790000      -0.60580000       1.25670000
C        0.68560000       0.15280000       2.49380000
N        0.69250000       0.77860000       3.46650000
C       -1.35140000      -0.57890000      -0.29130000
C       -2.42070000      -1.07650000      -0.52660000
H        0.85370000       1.97690000       0.22580000
H       -0.47490000       1.91130000      -0.94860000
H       -0.82210000       1.88510000       0.79110000
H        0.92010000      -1.47920000      -1.33110000
H        1.51410000       0.16920000      -1.63370000
H        2.59170000      -1.57610000       0.52870000
H        2.64050000       0.19510000       0.60490000
H        0.30240000      -1.60930000       1.45040000
H       -3.36740000      -1.51120000      -0.73340000
