23
Properties=species:S:1:pos:R:3 gdb_115642=T pbc="F F F"
C        0.05910000       1.59600000       0.06850000
C       -0.19370000       0.10990000      -0.20870000
C        0.76320000      -0.46480000      -1.24630000
C        2.22280000      -0.70430000      -0.80390000
O        2.12760000      -2.11150000      -1.09680000
C        0.75870000      -1.99580000      -1.51930000
C       -0.29180000      -2.94290000      -0.89070000
C       -0.94560000      -3.08370000      -2.29230000
C        0.36930000      -2.53840000      -2.91410000
H        1.07620000       1.76410000       0.43940000
H       -0.06420000       2.19470000      -0.84070000
H       -0.63530000       1.98300000       0.82040000
H       -0.10150000      -0.45800000       0.72570000
H       -1.22770000      -0.02680000      -0.55100000
H        0.69210000       0.11300000      -2.17420000
H        3.00210000      -0.21250000      -1.39830000
H        2.42210000      -0.52120000       0.26090000
H        0.20000000      -3.86810000      -0.57630000
H       -0.90200000      -2.56980000      -0.06510000
H       -1.26660000      -4.08150000      -2.59680000
H       -1.78340000      -2.39420000      -2.42800000
H        0.30180000      -1.82110000      -3.73710000
H        1.05000000      -3.34530000      -3.20120000
