17
Properties=species:S:1:pos:R:3 gdb_90054=T pbc="F F F"
C       -0.18990000       1.58220000      -0.14300000
C        0.05030000       0.10100000       0.06450000
O        0.97440000      -0.50250000      -0.93070000
C        1.85830000      -0.77930000       0.13710000
C        2.73360000       0.36270000       0.77040000
C        2.20280000      -0.40810000       1.98310000
C        0.82330000      -0.57740000       1.28810000
C        2.52970000      -1.75610000       1.13240000
O        2.89540000      -2.86940000       1.29390000
H        0.72690000       2.17040000      -0.17780000
H       -0.72110000       1.73340000      -1.08830000
H       -0.82010000       1.96540000       0.66620000
H       -0.90150000      -0.43190000      -0.00950000
H        3.80680000       0.33960000       0.57810000
H        2.32700000       1.36240000       0.65080000
H        2.43750000      -0.25860000       3.03410000
H        0.25740000      -1.45100000       1.61340000
