21
Properties=species:S:1:pos:R:3 gdb_60616=T pbc="F F F"
C        0.88940000       1.25700000      -0.82080000
C        0.10900000       0.22700000       0.00660000
N        0.04430000      -1.05410000      -0.69550000
C       -1.09900000      -1.92580000      -0.42400000
C       -0.93900000      -1.28740000      -1.76080000
C       -1.92060000      -0.24430000      -2.24980000
C        0.81020000       0.06270000       1.36880000
N        1.60000000      -1.03590000       1.46830000
O        0.67700000       0.89220000       2.24880000
H        1.87920000       0.86720000      -1.07650000
H        0.36340000       1.49350000      -1.74920000
H        1.00910000       2.17580000      -0.24220000
H       -0.88190000       0.63780000       0.24720000
H       -0.87690000      -2.97860000      -0.27090000
H       -1.88750000      -1.53280000       0.21710000
H       -0.53280000      -1.90690000      -2.55930000
H       -2.32380000       0.36490000      -1.43760000
H       -1.46150000       0.42440000      -2.98520000
H       -2.76460000      -0.74130000      -2.73980000
H        1.67020000      -1.66560000       0.68570000
H        2.13460000      -1.18130000       2.30780000
