25
Properties=species:S:1:pos:R:3 gdb_110098=T pbc="F F F"
C        0.01640000       1.41380000      -0.82700000
C       -0.24130000       0.57300000       0.43050000
C       -1.48260000      -0.29020000       0.30840000
C       -1.48200000      -1.69230000      -0.29930000
C       -0.24450000      -2.38410000      -0.83640000
C       -0.41070000      -3.90750000      -0.91250000
C       -1.76810000      -1.50650000       1.16700000
C       -0.82230000      -1.96650000       2.25460000
O       -3.12310000      -1.73480000       1.49020000
H        0.89780000       2.05140000      -0.70490000
H        0.17920000       0.77640000      -1.70200000
H       -0.83780000       2.06350000      -1.04760000
H        0.64040000      -0.04160000       0.63920000
H       -0.35080000       1.24190000       1.29500000
H       -2.38050000       0.27940000       0.07480000
H       -2.38030000      -1.92020000      -0.86870000
H       -0.02410000      -1.99390000      -1.83890000
H        0.63280000      -2.14740000      -0.22520000
H       -1.26160000      -4.17900000      -1.54650000
H        0.48240000      -4.38400000      -1.32950000
H       -0.59070000      -4.33560000       0.07890000
H        0.22780000      -1.85270000       1.97760000
H       -0.98160000      -1.38700000       3.17310000
H       -1.00460000      -3.01980000       2.49050000
H       -3.35070000      -1.15260000       2.22420000
