23
Properties=species:S:1:pos:R:3 gdb_93952=T pbc="F F F"
C       -0.25660000       1.39400000      -0.16200000
C        0.06260000      -0.09750000      -0.09730000
C        1.11760000      -0.57110000      -1.10520000
O        1.58440000      -1.81000000      -0.60340000
C        1.66050000      -1.71540000       0.82250000
C        0.68370000      -0.57630000       1.23460000
C        1.35040000      -3.06380000       1.43720000
C        0.26390000      -3.94150000       0.87120000
C        1.71450000      -4.34150000       0.73090000
H        0.64320000       1.99570000       0.01170000
H       -0.66220000       1.67390000      -1.14050000
H       -0.99610000       1.67590000       0.59420000
H       -0.85360000      -0.67050000      -0.28320000
H        0.72740000      -0.74060000      -2.11300000
H        1.94040000       0.16290000      -1.17330000
H        2.68910000      -1.43160000       1.09880000
H        1.22820000       0.24130000       1.71850000
H       -0.07450000      -0.92990000       1.93770000
H        1.45790000      -3.06280000       2.51900000
H       -0.36450000      -4.49480000       1.56020000
H       -0.23480000      -3.59710000      -0.02720000
H        2.15400000      -4.25240000      -0.25540000
H        2.08420000      -5.17030000       1.32460000
