13
Properties=species:S:1:pos:R:3 gdb_123290=T pbc="F F F"
C        0.17760000      -1.19770000      -0.00600000
C        0.04800000      -0.00070000       0.00250000
C       -0.08310000       1.39970000       0.01210000
C       -1.21020000       2.23030000       0.03250000
C       -0.67240000       3.54280000       0.03230000
N        0.65410000       3.53970000       0.01370000
N        0.98870000       2.24100000       0.00180000
C       -2.56560000       1.84320000       0.04930000
C       -3.72910000       1.53340000       0.06390000
H        0.27860000      -2.25500000      -0.01330000
H       -1.21740000       4.47420000       0.04510000
H        1.95950000       1.97470000      -0.01330000
H       -4.75310000       1.25370000       0.07680000
