17
Properties=species:S:1:pos:R:3 gdb_42736=T pbc="F F F"
O       -0.02700000       0.05890000       0.00490000
C       -0.07220000       1.25460000       0.02990000
C       -1.26630000       2.18940000       0.03470000
C       -0.78880000       3.25620000      -1.00890000
C        0.28350000       3.56440000       0.07240000
C       -0.81310000       3.22490000       1.12070000
C        1.13430000       2.26630000       0.05270000
C        2.02640000       2.08040000       1.18030000
C        2.75160000       1.93200000       2.12770000
H       -2.24990000       1.72590000       0.01560000
H       -0.45810000       2.90900000      -1.99210000
H       -1.51700000       4.06220000      -1.11760000
H        0.83380000       4.50340000       0.09430000
H       -1.54510000       4.02660000       1.23600000
H       -0.49680000       2.85080000       2.09680000
H        1.69100000       2.16480000      -0.88730000
H        3.39950000       1.79290000       2.95740000
