16
Properties=species:S:1:pos:R:3 gdb_35492=T pbc="F F F"
N       -0.10310000      -1.17820000      -0.32870000
C       -0.07380000      -0.03860000      -0.14050000
C       -0.03310000       1.42030000       0.05820000
N       -0.64960000       1.82110000       1.34720000
C        0.47400000       2.28700000       2.16520000
C        1.49020000       1.13470000       2.33500000
N        2.32740000       1.63620000       1.18740000
C        1.53360000       2.91960000       1.21340000
C        1.39910000       1.99040000       0.08050000
H       -0.57750000       1.86620000      -0.78170000
H       -1.29610000       2.58490000       1.17680000
H        0.13400000       2.82190000       3.05060000
H        2.08490000       1.22030000       3.24650000
H        1.11210000       0.11380000       2.23420000
H        1.98340000       3.90520000       1.20430000
H        1.90560000       2.15040000      -0.86380000
