17
Properties=species:S:1:pos:R:3 gdb_25651=T pbc="F F F"
C       -0.05340000       1.46720000       0.04640000
C       -0.00210000       0.01450000       0.00180000
C        0.03120000      -1.19060000      -0.03710000
C        0.07680000      -2.60500000      -0.08140000
C        1.17790000      -3.41360000       0.11230000
N        0.73170000      -4.70450000      -0.02760000
C        1.52310000      -5.91260000       0.08790000
C       -0.60570000      -4.62370000      -0.29700000
N       -1.03840000      -3.38860000      -0.33830000
H        0.60840000       1.91600000      -0.70340000
H       -1.06850000       1.82980000      -0.14960000
H        0.25060000       1.85020000       1.02750000
H        2.20740000      -3.18370000       0.33070000
H        1.96800000      -5.99470000       1.08430000
H        0.87580000      -6.77600000      -0.07670000
H        2.32300000      -5.92870000      -0.65860000
H       -1.20380000      -5.51030000      -0.45240000
