18
Properties=species:S:1:pos:R:3 gdb_28323=T pbc="F F F"
C       -0.07550000       1.48860000       0.00760000
C       -0.01550000      -0.00900000       0.00610000
C        0.04210000      -0.81510000      -1.10800000
N        0.15460000      -2.12260000      -0.66270000
C        0.00440000      -3.46280000      -1.18590000
C        0.35810000      -4.26860000       0.09180000
O        0.08690000      -3.39230000       1.20390000
C        0.11170000      -2.12910000       0.69940000
C        0.02240000      -0.85130000       1.17690000
H        0.80560000       1.93250000       0.48680000
H       -0.12920000       1.88130000      -1.01220000
H       -0.95300000       1.85800000       0.55170000
H        0.06950000      -0.56880000      -2.15680000
H       -1.02130000      -3.65260000      -1.52950000
H        0.69370000      -3.67720000      -2.00730000
H       -0.23880000      -5.17340000       0.21560000
H        1.42270000      -4.53130000       0.09900000
H       -0.00790000      -0.53860000       2.20770000
