17
Properties=species:S:1:pos:R:3 gdb_123788=T pbc="F F F"
C       -0.33320000       1.08250000      -0.30620000
C        1.06320000       1.16200000       0.25770000
C        0.39910000      -0.17530000       0.08490000
N       -0.02810000      -0.85410000       1.27800000
C       -1.08070000      -1.74640000       1.16220000
C       -1.99610000      -2.00000000       0.15930000
N       -2.86940000      -2.95170000       0.59970000
N       -2.56080000      -3.31230000       1.80340000
N       -1.46670000      -2.57780000       2.16120000
H       -1.14950000       1.39260000       0.33480000
H       -0.47970000       1.27570000      -1.36250000
H        1.88240000       1.41080000      -0.40680000
H        1.16940000       1.53170000       1.27120000
H        0.75410000      -0.81020000      -0.72740000
H        0.74160000      -1.19660000       1.83860000
H       -2.07160000      -1.56080000      -0.82030000
H       -1.08100000      -2.68170000       3.08540000
