21
Properties=species:S:1:pos:R:3 gdb_121039=T pbc="F F F"
C        0.07950000       1.56310000      -0.06960000
C        0.01760000       0.03700000       0.03600000
C       -1.41650000      -0.50620000      -0.01300000
C       -1.50720000      -2.03200000       0.04620000
C       -0.99410000      -2.65280000       1.36060000
O       -1.68620000      -3.90200000       1.51030000
C       -2.82260000      -3.92230000       0.75690000
O       -3.57300000      -4.85320000       0.75810000
C       -2.92570000      -2.61170000      -0.01530000
H        1.11220000       1.92320000      -0.03640000
H       -0.36590000       1.91210000      -1.00770000
H       -0.46610000       2.03960000       0.75230000
H        0.60050000      -0.41190000      -0.77910000
H        0.50310000      -0.28180000       0.96750000
H       -1.99950000      -0.08040000       0.81630000
H       -1.90100000      -0.15770000      -0.93440000
H       -0.92240000      -2.45680000      -0.77990000
H        0.07680000      -2.86480000       1.36420000
H       -1.22790000      -2.01390000       2.22300000
H       -3.64530000      -1.96780000       0.50700000
H       -3.31190000      -2.78950000      -1.01970000
