10
Properties=species:S:1:pos:R:3 gdb_128865=T pbc="F F F"
N        0.07370000      -3.71070000      -0.01860000
C        0.04880000      -2.54890000      -0.01190000
C        0.01450000      -1.18620000      -0.00410000
C       -0.02590000       0.02290000       0.00300000
C       -0.06720000       1.42520000       0.01140000
C       -1.13530000       2.28250000       0.03070000
O       -0.70440000       3.52450000       0.03190000
N        0.75750000       3.43950000       0.01130000
N        1.06460000       2.23440000       0.00030000
H       -2.19980000       2.11130000       0.04430000
