15
Properties=species:S:1:pos:R:3 gdb_11226=T pbc="F F F"
C        0.05790000       1.53040000      -0.05200000
C       -0.03690000       0.04350000      -0.04610000
N       -1.05600000      -0.64200000       0.28210000
C       -0.67700000      -2.06450000       0.12400000
C        0.81360000      -2.01120000      -0.34680000
O        1.09540000      -0.60290000      -0.44090000
C       -0.86340000      -2.82850000       1.35380000
C       -0.98890000      -3.47710000       2.35720000
H        0.86220000       1.85840000       0.61360000
H        0.29940000       1.88990000      -1.05700000
H       -0.88820000       1.95950000       0.27500000
H       -1.31220000      -2.50360000      -0.65540000
H        1.49860000      -2.46090000       0.37510000
H        0.96720000      -2.46430000      -1.32910000
H       -1.11380000      -4.04280000       3.24720000
