23
Properties=species:S:1:pos:R:3 gdb_119840=T pbc="F F F"
C        0.07800000       1.57060000       0.06230000
C        0.11450000       0.04050000       0.05750000
C        0.60510000      -0.53970000      -1.28350000
C        0.65460000      -2.03920000      -1.30720000
C       -0.09670000      -2.85920000      -2.05250000
C        0.19760000      -4.32270000      -1.80030000
C        1.37920000      -4.28340000      -0.83120000
C        2.64910000      -3.61290000      -1.28610000
C        1.63030000      -2.82570000      -0.48320000
H        1.07340000       1.99190000      -0.11780000
H       -0.58790000       1.95330000      -0.71930000
H       -0.27870000       1.95780000       1.02200000
H        0.76280000      -0.31210000       0.86920000
H       -0.88510000      -0.35740000       0.27060000
H       -0.05080000      -0.18390000      -2.08730000
H        1.60620000      -0.13540000      -1.49320000
H       -0.82710000      -2.53020000      -2.78450000
H       -0.66740000      -4.83430000      -1.35530000
H        0.43180000      -4.86740000      -2.72470000
H        1.46120000      -5.05520000      -0.07500000
H        3.56580000      -3.90760000      -0.78520000
H        2.76610000      -3.36270000      -2.33610000
H        1.89150000      -2.50170000       0.51850000
