17
Properties=species:S:1:pos:R:3 gdb_88525=T pbc="F F F"
O        0.05370000       1.25780000       0.93630000
C       -0.00120000       0.07080000       0.21280000
C       -0.60490000      -1.18330000       0.78190000
C       -1.29720000      -0.46380000      -0.36420000
C       -2.56670000       0.28930000      -0.13620000
C       -3.63270000      -0.19250000       0.77600000
O       -2.77050000       0.86690000       1.17280000
C       -3.02830000       1.19770000      -1.24160000
O       -2.63210000       1.13480000      -2.37500000
H       -0.74330000       1.31960000       1.47660000
H        0.88650000      -0.02420000      -0.40320000
H       -0.14200000      -2.14430000       0.58600000
H       -1.05550000      -1.09140000       1.76570000
H       -1.24750000      -0.90600000      -1.35350000
H       -4.67000000       0.09680000       0.61620000
H       -3.47420000      -1.14700000       1.27280000
H       -3.78980000       1.93840000      -0.91080000
