12
Properties=species:S:1:pos:R:3 gdb_133143=T pbc="F F F"
C       -0.07370000       1.67600000       0.02250000
C       -0.27700000       0.19410000      -0.20980000
C       -1.50710000      -0.37020000       0.34190000
F       -2.39150000       0.39760000       1.01450000
C       -1.77760000      -1.67070000       0.18350000
O       -2.00430000      -2.79370000       0.04030000
N        1.42870000      -3.41730000      -0.14470000
N        2.39070000      -3.42580000      -0.67510000
O        0.51140000      -0.51180000      -0.81390000
H       -0.05800000       1.89820000       1.09470000
H        0.86930000       1.97610000      -0.43490000
H       -0.90000000       2.25020000      -0.40930000
