17
Properties=species:S:1:pos:R:3 gdb_45478=T pbc="F F F"
N       -0.10650000       1.25370000      -0.58750000
C       -0.03930000       0.08930000      -0.10220000
O        1.10710000      -0.51590000       0.33700000
C        0.82120000      -1.83300000       0.86950000
C        0.69450000      -1.69880000       2.38860000
C       -0.67430000      -0.99200000       2.52320000
N       -1.48700000      -1.44860000       1.36350000
C       -0.61050000      -2.16310000       0.43250000
C       -1.18500000      -0.85460000       0.03600000
H        0.81980000       1.68390000      -0.61690000
H        1.59680000      -2.51320000       0.51670000
H        0.66040000      -2.69350000       2.84600000
H        1.52580000      -1.14200000       2.82660000
H       -1.20030000      -1.27420000       3.43790000
H       -0.57360000       0.09760000       2.51890000
H       -0.90220000      -3.13330000       0.04650000
H       -2.03830000      -0.71230000      -0.61520000
