13
Properties=species:S:1:pos:R:3 gdb_20663=T pbc="F F F"
C       -0.02680000       1.52560000       0.00410000
C       -0.00710000       0.03140000      -0.01330000
C       -0.04590000      -0.73360000      -1.13580000
N       -0.02830000      -2.11300000      -1.16590000
N        0.02850000      -2.75800000      -0.06880000
N        0.06920000      -2.05850000       1.07630000
C        0.05820000      -0.66770000       1.26120000
O        0.10030000      -0.17920000       2.37370000
H        0.86630000       1.91210000       0.50680000
H       -0.07650000       1.93740000      -1.00600000
H       -0.88270000       1.88820000       0.58320000
H       -0.09510000      -0.27990000      -2.12100000
H        0.11350000      -2.63400000       1.90890000
