16
Properties=species:S:1:pos:R:3 gdb_29869=T pbc="F F F"
C       -0.02550000       1.49000000       0.00280000
N        0.00350000       0.03550000       0.00660000
C       -0.03110000      -0.68250000      -1.13920000
N       -0.01870000      -1.97620000      -1.22610000
C        0.03690000      -2.73400000      -0.06730000
O        0.02170000      -3.95800000      -0.06620000
C        0.10500000      -2.00150000       1.22400000
N        0.22870000      -2.80500000       2.32910000
C        0.07210000      -0.64470000       1.21600000
H        0.87710000       1.89540000       0.47140000
H       -0.07550000       1.84490000      -1.02740000
H       -0.90140000       1.86050000       0.54540000
H       -0.07680000      -0.08800000      -2.05000000
H        0.01660000      -3.77030000       2.10570000
H       -0.11640000      -2.46870000       3.21350000
H        0.10340000      -0.02830000       2.10570000
