17
Properties=species:S:1:pos:R:3 gdb_85476=T pbc="F F F"
C       -0.44750000       1.54050000      -0.01960000
C        0.11980000       0.13850000      -0.07220000
O        1.19430000       0.07920000      -1.02680000
C        2.12670000      -0.83060000      -0.61240000
N        3.16830000      -1.17950000      -1.23630000
N        1.73050000      -1.33340000       0.62240000
C        0.76380000      -0.42240000       1.22980000
C        1.37480000       0.58400000       2.10200000
C        1.89640000       1.38150000       2.83480000
H        0.31590000       2.25650000       0.29160000
H       -0.82200000       1.82570000      -1.00600000
H       -1.27910000       1.58500000       0.69030000
H       -0.65030000      -0.57680000      -0.38900000
H        3.21420000      -0.71110000      -2.13820000
H        2.47780000      -1.69890000       1.19380000
H        0.01290000      -0.98100000       1.79910000
H        2.35990000       2.08810000       3.47880000
