17
Properties=species:S:1:pos:R:3 gdb_109530=T pbc="F F F"
O        0.07870000       1.26990000      -0.50350000
C        0.01610000       0.05570000       0.22510000
C       -1.36140000      -0.57100000       0.15650000
C       -1.80860000      -1.25000000      -1.12610000
C       -0.92820000      -1.31140000      -2.25450000
C       -0.19830000      -1.32520000      -3.21150000
C       -1.54340000      -2.07700000       0.14770000
C       -0.43250000      -2.97790000       0.23030000
C        0.47930000      -3.75750000       0.31440000
H        0.00680000       1.03660000      -1.43650000
H        0.77060000      -0.66330000      -0.11700000
H        0.25160000       0.30800000       1.26410000
H       -2.13890000      -0.01070000       0.66700000
H       -2.85950000      -1.14730000      -1.37980000
H        0.44290000      -1.36830000      -4.05700000
H       -2.44780000      -2.44080000       0.62730000
H        1.28830000      -4.44180000       0.38280000
