15
Properties=species:S:1:pos:R:3 gdb_128582=T pbc="F F F"
C        0.86510000       0.58200000       0.18970000
O       -0.52230000       0.86320000       0.02660000
C       -1.34440000      -0.17750000       0.19850000
C       -1.15480000      -1.49930000       0.50620000
C       -2.47720000      -2.02990000       0.52840000
N       -3.40490000      -1.13730000       0.26270000
N       -2.70370000       0.02610000       0.05470000
C       -3.33070000       1.23940000      -0.26060000
O       -4.51430000       1.38200000      -0.37620000
H        1.19640000      -0.16650000      -0.53880000
H        1.38860000       1.52250000       0.01850000
H        1.07010000       0.22110000       1.20390000
H       -0.22600000      -2.01150000       0.68740000
H       -2.76850000      -3.05060000       0.73440000
H       -2.58480000       2.04110000      -0.38300000
