15
Properties=species:S:1:pos:R:3 gdb_49477=T pbc="F F F"
O        0.18690000       0.00140000       0.56410000
C        0.08400000       1.11090000       0.10480000
N        1.10080000       1.79230000      -0.55160000
C        2.48070000       1.78970000      -0.11010000
C        3.32230000       2.29690000      -1.28870000
C        2.48590000       3.64090000      -1.26030000
C        1.76560000       4.03810000      -2.46020000
N        1.19230000       4.35670000      -3.41180000
C        1.65810000       3.05330000      -0.09630000
H       -0.86250000       1.68230000       0.08600000
H        2.78050000       1.15560000       0.71340000
H        4.36850000       2.47510000      -1.03830000
H        3.24910000       1.70660000      -2.20230000
H        3.10740000       4.47140000      -0.91740000
H        1.21620000       3.59620000       0.73020000
