16
Properties=species:S:1:pos:R:3 gdb_12274=T pbc="F F F"
O        0.07620000       1.29430000       0.30400000
C        0.01400000      -0.05290000      -0.11430000
C       -1.42680000      -0.56600000      -0.08850000
C       -1.73620000      -2.09690000      -0.12120000
C       -2.77100000      -1.90680000       1.05490000
O       -2.90510000      -2.82830000       2.08850000
C       -2.04490000      -0.58670000       1.31260000
O       -1.75140000      -0.01400000       2.33170000
H       -0.27260000       1.31760000       1.20470000
H        0.42230000      -0.09250000      -1.12930000
H        0.63990000      -0.70510000       0.51680000
H       -2.04280000      -0.00270000      -0.79610000
H       -2.13510000      -2.51000000      -1.04720000
H       -0.87760000      -2.68780000       0.20950000
H       -3.76250000      -1.72310000       0.62280000
H       -2.25990000      -2.60670000       2.77050000
