19
Properties=species:S:1:pos:R:3 gdb_106245=T pbc="F F F"
C        0.06860000       1.51660000      -0.16750000
C       -0.01010000       0.00800000       0.10780000
C       -1.42130000      -0.51130000       0.06740000
C       -2.49370000      -0.20070000       1.13290000
C       -2.88070000      -1.69590000       1.09070000
O       -3.56240000      -2.38080000       1.80110000
C       -1.91570000      -2.01460000      -0.00740000
C       -2.08720000      -1.01860000      -1.14930000
O       -3.32860000      -0.51070000      -1.53580000
H        1.10440000       1.86650000      -0.12670000
H       -0.33350000       1.75800000      -1.15650000
H       -0.50620000       2.08320000       0.57220000
H        0.59550000      -0.53440000      -0.62860000
H        0.42810000      -0.21020000       1.09000000
H       -2.07170000       0.05190000       2.11050000
H       -3.26340000       0.52260000       0.85990000
H       -1.37320000      -2.94340000      -0.14450000
H       -1.41070000      -1.23140000      -1.97990000
H       -3.84960000      -1.23150000      -1.90560000
