15
Properties=species:S:1:pos:R:3 gdb_14494=T pbc="F F F"
C       -0.17090000       1.59300000      -0.01530000
C        0.00730000       0.07500000       0.00810000
C       -1.27940000      -0.58630000      -0.21230000
N       -2.33340000      -1.02490000      -0.39230000
C        1.21020000      -0.64610000      -0.70030000
C        2.18530000      -0.11350000       0.37520000
C        0.91180000      -0.65390000       1.06600000
O        0.96510000      -1.82070000       0.16150000
H        0.76840000       2.12290000       0.14610000
H       -0.58210000       1.90870000      -0.97840000
H       -0.87660000       1.90090000       0.76150000
H        1.35740000      -0.81980000      -1.76580000
H        3.06200000      -0.74340000       0.52060000
H        2.42040000       0.94970000       0.41970000
H        0.70100000      -0.83710000       2.11920000
