14
Properties=species:S:1:pos:R:3 gdb_129073=T pbc="F F F"
N        0.01380000       0.99810000       0.00690000
H        0.02270000      -0.01130000      -0.06130000
H        0.86950000       1.52080000       0.07330000
C       -1.17690000       1.62080000       0.01390000
C       -1.29560000       3.03330000       0.10910000
N       -2.43650000       3.68720000       0.11910000
N       -3.61010000       3.02960000       0.03620000
C       -3.56710000       1.70990000      -0.05470000
C       -2.40320000       0.92890000      -0.07270000
C       -2.47890000      -0.52350000      -0.17590000
O       -1.51480000      -1.27180000      -0.19770000
H       -0.39900000       3.64650000       0.18020000
H       -4.53660000       1.21860000      -0.11930000
H       -3.50780000      -0.93430000      -0.23670000
