16
Properties=species:S:1:pos:R:3 gdb_123557=T pbc="F F F"
C       -0.02960000       1.46470000       0.09040000
C        1.29710000       0.75250000       0.02390000
C        2.06110000       0.45180000       1.33650000
C        1.08700000      -0.45570000       2.02530000
C       -0.02360000      -0.75460000       1.27950000
N       -0.83950000      -1.57940000       1.98080000
N       -0.28200000      -1.81160000       3.14120000
N        0.89060000      -1.11670000       3.18190000
C       -0.01380000      -0.04630000      -0.02290000
H       -0.35410000       1.89630000       1.03210000
H       -0.32290000       2.03120000      -0.78740000
H        1.88850000       0.87930000      -0.87490000
H        3.01860000      -0.04280000       1.13210000
H        2.28530000       1.36410000       1.90130000
H        1.46200000      -1.18580000       4.00830000
H       -0.36510000      -0.52480000      -0.92860000
