15
Properties=species:S:1:pos:R:3 gdb_53636=T pbc="F F F"
C       -0.13500000       1.43010000       0.01180000
C       -0.07590000      -0.02340000       0.00300000
C       -0.02900000      -1.22540000      -0.00430000
C        0.06570000      -2.67130000      -0.01340000
O       -1.27650000      -3.22390000      -0.00310000
C       -1.34370000      -4.55690000      -0.00930000
N       -0.33120000      -5.32110000      -0.02340000
C       -2.72520000      -5.00960000       0.00200000
N       -3.79750000      -5.44000000       0.01020000
H        0.87200000       1.86090000       0.00640000
H       -0.66530000       1.81080000      -0.86740000
H       -0.65130000       1.80060000       0.90370000
H        0.58770000      -3.04440000      -0.90150000
H        0.60530000      -3.05430000       0.85980000
H       -0.60050000      -6.30190000      -0.02580000
