19
Properties=species:S:1:pos:R:3 gdb_37323=T pbc="F F F"
C       -0.01090000       1.54610000       0.23620000
C        1.28060000       0.79730000       0.01390000
C       -0.04970000       0.05540000       0.00290000
N       -0.52830000      -0.57890000      -1.19690000
C       -1.04650000       0.17170000      -2.32950000
C        0.28670000      -0.48790000      -2.43090000
C        1.59680000       0.24270000      -2.42010000
C        1.73480000       1.72280000      -2.30650000
N        2.08680000       0.87960000      -1.17530000
H       -0.21760000       1.90180000       1.23990000
H       -0.37420000       2.20890000      -0.53980000
H        1.89980000       0.64220000       0.89220000
H       -0.25410000      -0.55900000       0.87440000
H       -1.90880000      -0.27500000      -2.81910000
H       -1.08150000       1.25690000      -2.28430000
H        0.33990000      -1.43360000      -2.96540000
H        2.38010000      -0.29570000      -2.94850000
H        2.57410000       2.22510000      -2.78210000
H        0.82940000       2.32270000      -2.26850000
