18
Properties=species:S:1:pos:R:3 gdb_15583=T pbc="F F F"
C        0.44270000       1.50740000      -0.39670000
C        0.02980000       0.10910000       0.04350000
O        0.12520000      -0.77840000      -1.07760000
C        0.94850000      -1.89620000      -0.77310000
C        1.87480000      -1.43060000       0.34700000
C        0.91520000      -0.53510000       1.16330000
C        1.56700000       0.39490000       2.06940000
C        2.11230000       1.15360000       2.82630000
H        1.50020000       1.53700000      -0.67590000
H       -0.14970000       1.80100000      -1.26760000
H        0.27660000       2.23310000       0.40380000
H       -1.01530000       0.13010000       0.38040000
H        0.33710000      -2.75220000      -0.44360000
H        1.47700000      -2.19000000      -1.68520000
H        2.29170000      -2.24760000       0.93960000
H        2.70130000      -0.83440000      -0.05040000
H        0.26790000      -1.19450000       1.75560000
H        2.59320000       1.82550000       3.49330000
