16
Properties=species:S:1:pos:R:3 gdb_126414=T pbc="F F F"
C       -0.08430000       1.55670000       0.14020000
C        0.01550000       0.04180000      -0.02410000
C        0.72360000      -0.42150000      -1.26840000
N        1.19410000       0.45630000      -2.10500000
N        1.81520000      -0.03170000      -3.19510000
C        2.00680000      -1.36590000      -3.52080000
O        2.58130000      -1.72810000      -4.52990000
C        1.42380000      -2.23290000      -2.48570000
N        0.82310000      -1.79410000      -1.43120000
H        0.90640000       2.01760000       0.17580000
H       -0.62550000       2.01100000      -0.69390000
H       -0.61120000       1.80060000       1.06670000
H        0.53060000      -0.40900000       0.83400000
H       -0.98250000      -0.41540000      -0.02480000
H        2.17520000       0.66460000      -3.83540000
H        1.51700000      -3.30670000      -2.64050000
