21
Properties=species:S:1:pos:R:3 gdb_116013=T pbc="F F F"
C       -0.18710000       1.41290000       0.01810000
O        0.03520000       0.02320000      -0.05260000
C        0.71910000      -0.53380000       1.06650000
C        0.16120000      -1.94050000       1.37160000
C        1.37910000      -2.79070000       1.79970000
C        2.54400000      -2.01450000       1.23600000
C        2.19990000      -0.79280000       0.82590000
C        3.10600000       0.24020000       0.22480000
O        4.41390000      -0.23120000      -0.04970000
H        0.74710000       1.99470000       0.00560000
H       -0.77660000       1.68940000      -0.86010000
H       -0.75060000       1.69070000       0.92230000
H        0.58920000       0.14360000       1.92750000
H       -0.64380000      -1.92420000       2.11010000
H       -0.25560000      -2.32100000       0.43420000
H        1.45490000      -2.86640000       2.89340000
H        1.33050000      -3.82020000       1.42670000
H        3.55640000      -2.40210000       1.21450000
H        2.63100000       0.65280000      -0.68010000
H        3.23330000       1.08350000       0.91740000
H        4.32750000      -0.95930000      -0.67420000
