19
Properties=species:S:1:pos:R:3 gdb_62455=T pbc="F F F"
N       -0.19460000       1.46720000       0.08880000
C       -0.07810000       0.03170000       0.03460000
C        1.02960000      -0.48370000      -0.74700000
N        1.92650000      -0.85070000      -1.38100000
C       -0.45960000      -0.81650000       1.24880000
C       -1.22380000      -0.14750000       2.38350000
C       -2.47980000       0.49840000       1.74260000
C       -2.66740000      -0.18850000       0.36480000
C       -1.33400000      -0.84130000       0.02610000
H        0.64590000       1.87780000       0.48400000
H       -0.30440000       1.85080000      -0.84490000
H        0.20640000      -1.63860000       1.48420000
H       -1.50310000      -0.92710000       3.10110000
H       -0.62110000       0.58510000       2.92920000
H       -3.36280000       0.37790000       2.37650000
H       -2.31220000       1.56520000       1.60110000
H       -3.42170000      -0.98150000       0.41820000
H       -3.00280000       0.51750000      -0.40120000
H       -1.32540000      -1.68200000      -0.65790000
