16
Properties=species:S:1:pos:R:3 gdb_11269=T pbc="F F F"
C        0.42580000       1.54890000       0.03420000
C        0.02280000       0.07390000       0.09710000
C        0.43410000      -0.73710000      -1.17260000
N        1.66270000      -1.46960000      -0.81860000
C        1.76270000      -1.36290000       0.45740000
N        0.77150000      -0.67530000       1.12130000
C        2.89990000      -1.95400000       1.20730000
O        3.05740000      -1.78920000       2.39350000
H        1.49230000       1.65140000      -0.19220000
H       -0.14100000       2.06530000      -0.74770000
H        0.22480000       2.05720000       0.98330000
H       -1.05190000      -0.00580000       0.28720000
H       -0.33870000      -1.46510000      -1.45130000
H        0.60550000      -0.09690000      -2.04400000
H        1.00530000      -0.24890000       2.00680000
H        3.59600000      -2.53850000       0.57660000
