16
Properties=species:S:1:pos:R:3 gdb_42822=T pbc="F F F"
O        0.07120000      -0.00300000      -0.10410000
C        0.02410000       1.17430000       0.08660000
C       -1.05840000       2.27980000       0.06370000
C       -0.80940000       3.06140000       1.36430000
C        0.73300000       3.10300000       1.30080000
C        1.60760000       4.09890000       1.91210000
O        1.50670000       2.76470000       2.44060000
C        1.00000000       2.37650000      -0.00850000
N       -0.09270000       2.99850000      -0.86690000
H       -2.07870000       2.11430000      -0.27530000
H       -1.26020000       4.05550000       1.32160000
H       -1.15740000       2.53810000       2.25790000
H        2.56170000       4.34600000       1.44880000
H        1.17760000       4.88010000       2.53780000
H        2.01580000       2.32060000      -0.39230000
H       -0.09750000       2.52480000      -1.77120000
