16
Properties=species:S:1:pos:R:3 gdb_4852=T pbc="F F F"
C       -0.18940000       1.42500000       0.08090000
O       -0.04540000       0.00970000       0.00170000
C       -1.16640000      -0.72080000      -0.00800000
C       -1.33710000      -2.06780000      -0.05410000
C       -2.76180000      -2.26310000      -0.04450000
C       -3.34520000      -1.03970000       0.00660000
C       -4.74710000      -0.55320000       0.04190000
O       -2.35530000      -0.07150000       0.02940000
H        0.82490000       1.82510000       0.08120000
H       -0.74290000       1.81720000      -0.77870000
H       -0.70580000       1.72140000       1.00000000
H       -0.55830000      -2.81040000      -0.08960000
H       -3.28330000      -3.20780000      -0.07210000
H       -4.95880000       0.02570000       0.94920000
H       -4.98130000       0.08900000      -0.81600000
H       -5.42830000      -1.40720000       0.02000000
