13
Properties=species:S:1:pos:R:3 gdb_2899=T pbc="F F F"
O       -0.04520000      -0.01600000      -0.00910000
C        0.00790000       1.19410000      -0.02000000
C        1.25870000       1.95190000       0.01800000
C        1.38290000       3.28270000       0.00840000
C        2.83300000       3.65430000       0.05770000
O        3.53900000       2.42110000       0.09740000
C        2.62630000       1.32170000       0.07500000
H       -0.91410000       1.81460000      -0.06040000
H        0.57610000       4.00510000      -0.02910000
H        3.13770000       4.24270000      -0.82320000
H        3.07270000       4.26230000       0.94530000
H        2.75820000       0.70040000       0.97170000
H        2.82340000       0.68230000      -0.79680000
