15
Properties=species:S:1:pos:R:3 gdb_16882=T pbc="F F F"
O       -0.02200000      -0.03210000       0.20500000
C       -0.02190000       1.15080000      -0.01930000
N       -1.16260000       1.91800000      -0.08620000
C       -1.16780000       3.35110000       0.04040000
C       -0.30600000       4.03350000       1.08410000
C        0.09720000       4.02880000      -0.37370000
C        1.16960000       3.08730000      -0.86910000
O        1.15210000       1.81860000      -0.20290000
H       -1.97090000       1.41770000       0.25210000
H       -2.12440000       3.78840000      -0.22100000
H       -0.65650000       4.96710000       1.50980000
H        0.24550000       3.39660000       1.76700000
H        0.02790000       4.95940000      -0.92800000
H        1.04670000       2.92590000      -1.94870000
H        2.17500000       3.48110000      -0.69710000
