15
Properties=species:S:1:pos:R:3 gdb_92868=T pbc="F F F"
O       -0.02920000       1.42180000      -0.02900000
C       -0.00080000      -0.00550000       0.01800000
C       -1.45550000      -0.47600000       0.00800000
C       -2.11220000      -0.33910000      -1.33690000
C       -1.45140000      -0.21800000      -2.49660000
C        0.01840000      -0.23020000      -2.57030000
O        0.64470000      -0.11160000      -3.59950000
C        0.75540000      -0.47040000      -1.22660000
O        1.86600000      -0.93500000      -1.19300000
H        0.87910000       1.74060000       0.02010000
H        0.52470000      -0.36790000       0.91040000
H       -1.50640000      -1.52460000       0.33200000
H       -2.00870000       0.10230000       0.75670000
H       -3.19980000      -0.35010000      -1.34440000
H       -1.97190000      -0.12130000      -3.44440000
