19
Properties=species:S:1:pos:R:3 gdb_105274=T pbc="F F F"
O       -0.36860000       1.37380000      -0.81050000
C       -0.12070000       0.16730000      -0.09410000
C       -1.43160000      -0.56690000       0.05260000
C       -1.96310000      -1.33700000      -1.14080000
C       -1.42120000      -2.07350000       0.05650000
O       -0.17770000      -2.71380000      -0.00800000
C       -2.41760000       0.11950000       0.95430000
C       -3.45400000       1.01970000       0.44160000
O       -3.78030000      -0.30520000       0.88180000
H        0.45990000       1.85920000      -0.86540000
H        0.60110000      -0.47500000      -0.61230000
H        0.29060000       0.38430000       0.90570000
H       -3.03570000      -1.34970000      -1.29610000
H       -1.35300000      -1.32090000      -2.03730000
H       -2.14960000      -2.55470000       0.70850000
H       -0.27570000      -3.48970000      -0.56950000
H       -2.06100000       0.28480000       1.97370000
H       -3.83530000       1.82300000       1.06950000
H       -3.52280000       1.18490000      -0.63110000
