20
Properties=species:S:1:pos:R:3 gdb_117447=T pbc="F F F"
C        0.00400000       1.60770000      -0.21550000
C       -0.04710000       0.08800000      -0.04010000
C        0.68240000      -0.64900000      -1.16340000
C        0.66330000      -2.15110000      -1.04030000
N        0.09210000      -2.75800000      -0.08770000
O        1.34290000      -2.69990000      -2.09560000
C        1.44460000      -4.10780000      -2.17150000
C        2.23950000      -4.44470000      -3.42370000
O        2.48980000      -5.57110000      -3.75570000
H        1.03630000       1.97580000      -0.22240000
H       -0.46200000       1.91820000      -1.15770000
H       -0.52320000       2.11520000       0.59780000
H        0.39310000      -0.19820000       0.92050000
H       -1.08600000      -0.25500000      -0.00270000
H        0.25440000      -0.38980000      -2.14100000
H        1.73270000      -0.33300000      -1.21830000
H        0.16730000      -3.77180000      -0.14570000
H        1.96220000      -4.52690000      -1.29690000
H        0.45640000      -4.58490000      -2.23710000
H        2.56790000      -3.55570000      -4.00370000
