18
Properties=species:S:1:pos:R:3 gdb_131848=T pbc="F F F"
O       -0.05020000       1.41690000      -0.22590000
C        0.00520000       0.01560000       0.02030000
C       -1.42780000      -0.48770000       0.05960000
N       -2.07260000      -0.20230000      -1.21330000
C       -3.40260000      -0.56820000      -1.35230000
C       -4.23740000      -1.35860000      -0.57850000
C       -5.45150000      -1.39850000      -1.30270000
N       -5.40070000      -0.69900000      -2.42650000
N       -4.13410000      -0.20010000      -2.43690000
H        0.83980000       1.73270000      -0.40480000
H        0.55360000      -0.50410000      -0.77850000
H        0.49650000      -0.20470000       0.97930000
H       -1.42490000      -1.57050000       0.22660000
H       -1.95480000      -0.02190000       0.90820000
H       -1.87310000       0.74920000      -1.49860000
H       -4.00790000      -1.82140000       0.36620000
H       -6.36530000      -1.91010000      -1.03550000
H       -3.82490000       0.33690000      -3.22850000
