19
Properties=species:S:1:pos:R:3 gdb_32807=T pbc="F F F"
C       -0.11820000       1.53130000      -0.03340000
C       -0.02110000       0.01590000      -0.02360000
O       -1.33890000      -0.50830000      -0.00420000
C       -1.44410000      -1.86830000       0.00690000
C       -2.67060000      -2.50620000       0.02610000
N       -4.00380000      -2.04050000       0.03870000
N       -2.40840000      -3.86060000       0.03270000
C       -1.06410000      -4.08610000       0.01860000
C       -0.42450000      -2.86160000       0.00200000
H        0.88210000       1.97440000      -0.04850000
H       -0.66420000       1.87660000      -0.91590000
H       -0.64320000       1.88940000       0.85680000
H        0.51420000      -0.34660000      -0.91400000
H        0.53530000      -0.33380000       0.85910000
H       -4.18040000      -1.45400000       0.84910000
H       -4.20050000      -1.46730000      -0.77660000
H       -3.13670000      -4.55320000       0.04640000
H       -0.66120000      -5.08560000       0.02110000
H        0.64230000      -2.70930000      -0.01190000
