20
Properties=species:S:1:pos:R:3 gdb_68599=T pbc="F F F"
C        0.02580000       1.51250000       0.09950000
C       -0.04320000       0.01950000      -0.03580000
C        0.31690000      -0.79200000      -1.31500000
C       -0.39950000      -1.92980000      -0.51840000
C        0.52820000      -2.03420000       0.69880000
O        0.75120000      -0.63030000       0.98020000
C       -1.33830000      -0.81680000      -0.01300000
C       -2.52460000      -0.78200000       0.84930000
N       -2.61970000      -0.49230000      -0.61180000
H        1.05440000       1.86180000      -0.03010000
H       -0.59780000       2.00050000      -0.65600000
H       -0.31390000       1.82470000       1.09220000
H       -0.24800000      -0.48260000      -2.19560000
H        1.38030000      -0.90820000      -1.53900000
H       -0.76500000      -2.84460000      -0.98080000
H        0.05730000      -2.51920000       1.56180000
H        1.48290000      -2.52900000       0.48540000
H       -3.01290000      -1.70270000       1.15780000
H       -2.63250000       0.04350000       1.54870000
H       -2.70310000       0.51320000      -0.75240000
