18
Properties=species:S:1:pos:R:3 gdb_70232=T pbc="F F F"
C        0.03260000       1.53490000       0.07600000
C       -0.02540000       0.02930000      -0.00770000
C       -0.85420000      -0.79150000       0.92920000
N        0.60630000      -0.78650000       1.06450000
C        1.28220000      -1.92050000       0.40830000
C        0.98830000      -1.77880000      -1.08470000
C        0.27630000      -0.66000000      -1.29420000
C        1.42250000      -2.72570000      -2.03830000
C        1.82520000      -3.56150000      -2.80820000
H        1.00180000       1.91130000      -0.26750000
H       -0.74730000       1.98790000      -0.54620000
H       -0.11610000       1.86630000       1.10660000
H       -1.37900000      -0.30930000       1.75070000
H       -1.34070000      -1.67840000       0.52820000
H        2.36060000      -1.86960000       0.60260000
H        0.92550000      -2.87440000       0.81390000
H       -0.04990000      -0.29350000      -2.25930000
H        2.17230000      -4.28840000      -3.49990000
