13
Properties=species:S:1:pos:R:3 gdb_307=T pbc="F F F"
C       -0.06500000       1.58660000       0.01950000
C        0.01110000       0.06790000      -0.01510000
C        0.71810000      -0.58920000      -1.24040000
C        1.72750000      -1.16310000      -0.21510000
O        2.69230000      -1.87780000      -0.25110000
N        1.07080000      -0.53020000       0.81320000
H        0.90930000       2.02920000      -0.21080000
H       -0.79440000       1.94960000      -0.71200000
H       -0.37740000       1.94450000       1.00640000
H       -0.97350000      -0.36930000       0.19020000
H        0.14230000      -1.34790000      -1.77300000
H        1.15280000       0.11250000      -1.95520000
H        1.21300000      -0.55980000       1.81240000
