19
Properties=species:S:1:pos:R:3 gdb_106009=T pbc="F F F"
C        0.10200000       1.34650000       0.02110000
O        0.02290000      -0.06640000      -0.01410000
C       -1.24600000      -0.57740000       0.00110000
C       -1.51720000      -2.10260000      -0.03250000
C       -2.79950000      -1.77020000      -0.76150000
C       -2.76520000      -1.81000000       0.76950000
C       -2.39660000      -0.33840000       1.08150000
C       -3.18220000       0.53480000       0.07320000
C       -2.44350000      -0.28410000      -1.01310000
H        1.16270000       1.60490000       0.00420000
H       -0.39090000       1.80080000      -0.84950000
H       -0.35110000       1.75420000       0.93540000
H       -0.86800000      -2.96620000      -0.06950000
H       -3.42650000      -2.42220000      -1.35500000
H       -3.36570000      -2.49260000       1.35580000
H       -2.22170000      -0.05290000       2.11820000
H       -4.27480000       0.48180000       0.09630000
H       -2.86390000       1.58160000       0.09320000
H       -2.31470000       0.05500000      -2.04040000
