19
Properties=species:S:1:pos:R:3 gdb_91212=T pbc="F F F"
C       -0.51080000       1.39680000       0.09760000
C        0.05540000      -0.00980000      -0.03710000
C        1.35950000      -0.21990000      -0.87520000
C        2.03840000      -0.85570000       0.35030000
O        2.72740000       0.15010000       1.16310000
C        1.62540000       0.32240000       1.97140000
O        1.52600000       1.03900000       2.91600000
C        0.75480000      -0.67630000       1.20940000
C        0.01480000      -1.72640000       2.00450000
H        0.24700000       2.10590000       0.44510000
H       -0.88500000       1.75260000      -0.86830000
H       -1.34240000       1.42450000       0.80940000
H       -0.72900000      -0.68860000      -0.38650000
H        1.23590000      -0.90400000      -1.71770000
H        1.85750000       0.68750000      -1.22450000
H        2.62910000      -1.76720000       0.26970000
H       -0.79180000      -1.26320000       2.58260000
H       -0.43080000      -2.47800000       1.34490000
H        0.67570000      -2.23870000       2.71090000
