19
Properties=species:S:1:pos:R:3 gdb_107582=T pbc="F F F"
C        0.07220000       1.46840000       0.41140000
C        0.01940000       0.05820000      -0.19360000
C       -1.36970000      -0.52640000      -0.19300000
N       -2.01570000      -0.98390000       1.07280000
C       -1.72720000      -1.95410000       0.00190000
C       -2.95980000      -2.26970000      -0.83360000
N       -3.29470000      -0.97380000      -1.40310000
C       -2.42660000       0.04690000      -1.12530000
O       -2.48470000       1.17650000      -1.56560000
H        1.09090000       1.86560000       0.37750000
H       -0.58750000       2.13800000      -0.14380000
H       -0.25250000       1.46080000       1.45720000
H        0.38830000       0.08860000      -1.22580000
H        0.68680000      -0.61860000       0.35650000
H       -1.28780000      -1.05640000       1.78330000
H       -0.97650000      -2.72090000       0.15670000
H       -2.72840000      -3.00520000      -1.61540000
H       -3.77350000      -2.66420000      -0.21360000
H       -4.13550000      -0.79870000      -1.92900000
