20
Properties=species:S:1:pos:R:3 gdb_76665=T pbc="F F F"
C       -0.23460000       1.38580000       0.23800000
C        0.07600000      -0.08500000       0.08540000
C        1.45590000      -0.56220000      -0.32590000
O        2.51000000       0.35850000      -0.42480000
C        0.97610000      -0.81360000       1.07560000
N        1.64590000      -0.09890000       2.11340000
C        1.30470000      -0.24490000       3.42750000
C        2.20160000       0.49430000       4.40970000
O        0.36520000      -0.93120000       3.78770000
H        0.62740000       1.94060000       0.61460000
H       -0.53270000       1.82930000      -0.71890000
H       -1.05770000       1.53400000       0.94400000
H       -0.74380000      -0.68630000      -0.29910000
H        1.53800000      -1.41000000      -1.00440000
H        2.34230000       0.93710000      -1.17560000
H        0.69170000      -1.81840000       1.36570000
H        2.46210000       0.42830000       1.84640000
H        2.84580000       1.24000000       3.93620000
H        1.57350000       0.98080000       5.15860000
H        2.83260000      -0.23180000       4.93180000
