14
Properties=species:S:1:pos:R:3 gdb_42604=T pbc="F F F"
N        0.04910000       1.21300000      -0.15960000
C       -0.00930000      -0.03230000      -0.06600000
C       -1.09420000      -1.03560000       0.00070000
C       -0.61770000      -2.27370000      -0.79890000
O        0.37040000      -2.11880000      -1.79670000
C        1.43920000      -1.46920000      -1.19890000
N        2.53780000      -1.19680000      -1.73890000
N        1.05460000      -1.07180000       0.13180000
C       -0.03460000      -2.02520000       0.52180000
H        1.01790000       1.53830000      -0.14350000
H       -2.13050000      -0.89530000       0.27770000
H       -1.33620000      -3.05120000      -1.01870000
H        2.55130000      -1.51930000      -2.70670000
H        0.02100000      -2.62710000       1.41720000
