15
Properties=species:S:1:pos:R:3 gdb_127189=T pbc="F F F"
C       -0.05340000       1.46210000       0.00900000
N       -0.01620000       0.00130000       0.00080000
C       -1.23200000      -0.69190000       0.00420000
N       -2.32680000      -0.02860000       0.01460000
C       -1.09370000      -2.15030000      -0.00480000
N        0.02800000      -2.77750000      -0.01490000
N        1.14000000      -2.01880000      -0.01710000
C        1.21760000      -0.63100000      -0.00960000
O        2.28830000      -0.06230000      -0.01290000
H        0.97360000       1.81920000       0.00300000
H       -0.59740000       1.82060000      -0.86780000
H       -0.58350000       1.81130000       0.89810000
H       -3.12350000      -0.66400000       0.01570000
H       -1.99460000      -2.75420000      -0.00300000
H        2.01820000      -2.51320000      -0.02500000
