17
Properties=species:S:1:pos:R:3 gdb_63364=T pbc="F F F"
C       -0.73550000       1.54850000      -0.00440000
C       -0.13210000       0.14660000      -0.00220000
C       -1.17610000      -0.93640000      -0.29690000
N        1.12520000       0.04060000      -0.81800000
C        1.92230000      -0.53460000       0.29080000
C        3.20160000       0.11110000       0.55530000
N        4.20990000       0.62670000       0.78600000
C        0.71930000      -0.19320000       1.23500000
O        0.55430000      -0.19530000       2.41100000
H        0.03340000       2.30140000       0.18250000
H       -1.19120000       1.76010000      -0.97720000
H       -1.50780000       1.63230000       0.76610000
H       -1.60150000      -0.78020000      -1.29430000
H       -0.74250000      -1.94120000      -0.26190000
H       -1.99230000      -0.89350000       0.42980000
H        1.05380000      -0.56910000      -1.62480000
H        2.07200000      -1.62320000       0.25400000
