18
Properties=species:S:1:pos:R:3 gdb_48777=T pbc="F F F"
O        0.04570000      -0.07260000      -0.24890000
C        0.14540000       1.01820000       0.25180000
C        1.32810000       1.91740000       0.07520000
C        2.26780000       1.64200000      -1.05450000
N        2.67520000       1.28000000       0.29400000
C        3.51030000       2.27620000       1.01300000
C        2.66500000       3.50910000       1.34000000
C        2.16770000       4.39270000       0.22530000
C        1.29490000       3.27380000       0.73780000
H       -0.66770000       1.43480000       0.88920000
H        2.04490000       0.79170000      -1.69340000
H        2.73850000       2.48420000      -1.55330000
H        3.84680000       1.80730000       1.94260000
H        4.40290000       2.50630000       0.41980000
H        2.77620000       3.94520000       2.32690000
H        1.87280000       5.40150000       0.49620000
H        2.61290000       4.32390000      -0.76000000
H        0.38730000       3.52720000       1.27490000
