18
Properties=species:S:1:pos:R:3 gdb_46767=T pbc="F F F"
O       -0.20830000       0.39800000       0.89310000
C       -0.13550000       1.43250000       0.28230000
C       -1.32130000       2.28530000      -0.19340000
N       -0.77830000       3.37570000      -1.00510000
C        0.64740000       3.52460000      -0.63020000
C        0.87300000       4.42410000       0.56650000
C        1.62340000       3.84450000       1.50270000
C        2.04520000       2.44210000       1.12570000
C        1.16360000       2.15560000      -0.11070000
H       -2.05060000       1.68150000      -0.73980000
H       -1.83050000       2.66900000       0.70180000
H       -0.83020000       3.11870000      -1.98420000
H        1.18920000       3.90180000      -1.50500000
H        0.46820000       5.42890000       0.60380000
H        1.93750000       4.31200000       2.42960000
H        3.11380000       2.40280000       0.87820000
H        1.87960000       1.70520000       1.91990000
H        1.67450000       1.55640000      -0.87060000
