17
Properties=species:S:1:pos:R:3 gdb_126867=T pbc="F F F"
C       -0.02800000       1.48130000      -0.07860000
C       -0.07180000      -0.03060000       0.18270000
N       -1.42560000      -0.54320000       0.06210000
C       -1.82170000      -1.07380000      -1.04000000
C       -1.09680000      -1.27180000      -2.29900000
N       -1.61330000      -1.85390000      -3.33900000
N       -2.86940000      -2.28590000      -3.23210000
N       -3.69280000      -2.15100000      -2.17900000
C       -3.19170000      -1.57150000      -1.13570000
H        0.97340000       1.87890000       0.11460000
H       -0.29340000       1.70920000      -1.11630000
H       -0.74010000       1.99830000       0.57070000
H        0.65480000      -0.53980000      -0.46950000
H        0.25480000      -0.21850000       1.21250000
H       -0.07880000      -0.92510000      -2.42950000
H       -3.26530000      -2.71190000      -4.05270000
H       -3.84590000      -1.45540000      -0.27740000
