18
Properties=species:S:1:pos:R:3 gdb_38736=T pbc="F F F"
C       -0.01130000       1.56840000       0.02680000
C        1.50190000       1.84730000      -0.02210000
O        2.00370000       1.48030000      -1.31390000
C        1.97350000       0.04720000      -1.33640000
C        0.51040000      -0.42300000      -1.42720000
C        0.00680000       0.02870000      -0.04230000
N        1.11320000      -0.37280000       0.90480000
C        2.04790000       0.78100000       0.93880000
C        2.35340000      -0.38510000       0.08750000
H       -0.43570000       1.90890000       0.97740000
H       -0.55220000       2.04190000      -0.79650000
H        1.80150000       2.87510000       0.18470000
H        2.63310000      -0.29890000      -2.13260000
H       -0.02580000       0.03280000      -2.26330000
H        0.46080000      -1.51320000      -1.52100000
H       -0.92540000      -0.44320000       0.26950000
H        2.53520000       1.02170000       1.87710000
H        3.10180000      -1.14090000       0.29820000
