11
Properties=species:S:1:pos:R:3 gdb_5366=T pbc="F F F"
O       -0.07660000      -0.00700000      -0.00320000
C        0.00520000       1.19030000       0.00560000
C        1.31300000       1.94790000      -0.00200000
N        2.45800000       1.26370000      -0.02010000
C        3.54810000       2.02830000      -0.02540000
N        3.56960000       3.36380000      -0.01430000
C        2.36340000       3.93020000       0.00340000
N        1.19970000       3.27940000       0.01030000
H       -0.87510000       1.86410000       0.02060000
H        4.50900000       1.51920000      -0.04030000
H        2.32520000       5.01710000       0.01300000
