20
Properties=species:S:1:pos:R:3 gdb_112886=T pbc="F F F"
C       -0.27540000       1.58560000       0.41130000
C       -0.19120000       0.16670000      -0.15840000
N       -1.43930000      -0.56670000      -0.06780000
C       -1.95910000      -1.10190000       1.17730000
C       -3.39660000      -1.53040000       0.82710000
O       -4.23430000      -0.43190000       1.16090000
C       -3.33680000      -1.77660000      -0.68670000
C       -2.16910000      -0.91550000      -1.17340000
O       -1.91000000      -0.61630000      -2.32120000
H        0.68900000       2.09160000       0.30200000
H       -1.03290000       2.16830000      -0.12000000
H       -0.53110000       1.58310000       1.47550000
H        0.05910000       0.20000000      -1.22200000
H        0.59670000      -0.40090000       0.35580000
H       -1.35760000      -1.95280000       1.53020000
H       -1.98430000      -0.34750000       1.96910000
H       -3.68960000      -2.42590000       1.39030000
H       -5.11620000      -0.61410000       0.82090000
H       -3.11420000      -2.82440000      -0.91990000
H       -4.26080000      -1.51250000      -1.20650000
