18
Properties=species:S:1:pos:R:3 gdb_7515=T pbc="F F F"
C        0.00520000       1.47860000      -0.15240000
C        0.07230000      -0.02300000       0.01690000
C        1.40670000      -0.75270000      -0.04150000
C        0.64720000      -0.63860000       1.25880000
O        1.11690000       0.26270000       2.22000000
C       -0.00820000      -1.87830000       1.86260000
C        0.92590000      -2.61160000       2.71380000
C        1.73350000      -3.15840000       3.41770000
H        0.83580000       1.96470000       0.36320000
H        0.04520000       1.75230000      -1.21220000
H       -0.92450000       1.88170000       0.26350000
H       -0.76820000      -0.56250000      -0.41470000
H        1.46380000      -1.71330000      -0.54280000
H        2.29570000      -0.13740000      -0.13110000
H        1.78950000      -0.19940000       2.73590000
H       -0.87780000      -1.56910000       2.45660000
H       -0.38020000      -2.52970000       1.06350000
H        2.42840000      -3.67010000       4.03660000
