20
Properties=species:S:1:pos:R:3 gdb_106744=T pbc="F F F"
C        0.12330000       1.49480000       0.17800000
C       -0.09000000      -0.01450000      -0.00970000
C        0.55980000      -0.52580000      -1.26430000
C        2.03780000      -0.94190000      -1.37210000
C        0.96070000      -1.91880000      -1.74080000
C        0.72820000      -3.26560000      -1.12900000
N        0.42460000      -1.60070000      -3.07810000
C        0.10200000      -0.28230000      -2.69520000
O       -0.36130000       0.63710000      -3.31130000
H        1.18770000       1.73100000       0.27800000
H       -0.26230000       2.04500000      -0.68490000
H       -0.39020000       1.85440000       1.07460000
H        0.30620000      -0.56080000       0.85570000
H       -1.16500000      -0.22970000      -0.04620000
H        2.68010000      -0.51320000      -2.13650000
H        2.52400000      -1.09440000      -0.41100000
H        0.98430000      -3.25500000      -0.06540000
H       -0.31920000      -3.56340000      -1.23480000
H        1.34860000      -4.03130000      -1.60920000
H        0.91660000      -1.80930000      -3.94150000
