10
Properties=species:S:1:pos:R:3 gdb_1008=T pbc="F F F"
C        0.10790000      -1.17920000      -0.00560000
C        0.02450000       0.02190000       0.00240000
C       -0.09670000       1.41930000       0.01190000
C       -1.15440000       2.28110000       0.03120000
N       -0.69210000       3.58380000       0.03230000
C        0.59670000       3.45970000       0.01400000
O        1.04730000       2.18980000       0.00060000
H        0.18310000      -2.23870000      -0.01260000
H       -2.20560000       2.04350000       0.04420000
H        1.34360000       4.23820000       0.00820000
