18
Properties=species:S:1:pos:R:3 gdb_126018=T pbc="F F F"
C       -0.24770000       1.56530000      -0.05550000
C        0.01660000       0.05950000       0.00770000
C        0.98080000      -0.44270000      -1.12440000
N        1.69980000      -1.61040000      -0.55930000
C        1.70820000      -1.39730000       0.81930000
N        2.39320000      -1.93210000       1.81310000
N        1.83620000      -1.31430000       2.90320000
C        0.85100000      -0.42440000       2.58840000
C        0.74460000      -0.45180000       1.21940000
H        0.68210000       2.13010000       0.06720000
H       -0.69580000       1.84730000      -1.01460000
H       -0.93730000       1.87580000       0.73580000
H       -0.94360000      -0.46580000      -0.09770000
H        0.44120000      -0.72420000      -2.03300000
H        1.67880000       0.37030000      -1.37960000
H        2.59510000      -1.81120000      -0.98430000
H        2.21510000      -1.51210000       3.81180000
H        0.33860000       0.13300000       3.35720000
