20
Properties=species:S:1:pos:R:3 gdb_122499=T pbc="F F F"
C       -0.28440000       1.18880000      -0.23000000
O       -0.07500000      -0.20160000      -0.15270000
C        0.60590000      -0.71840000      -1.27090000
C        0.76290000      -2.22420000      -1.07540000
C        1.59100000      -2.88120000      -2.15660000
C        1.42110000      -4.34210000      -2.47090000
N        0.99310000      -3.33170000      -3.40750000
C       -0.31140000      -3.16270000      -3.83130000
O       -1.08450000      -4.05990000      -4.06490000
H        0.66630000       1.74230000      -0.28820000
H       -0.89400000       1.46220000      -1.10560000
H       -0.81370000       1.49030000       0.67680000
H        0.04850000      -0.50170000      -2.19880000
H        1.59720000      -0.24220000      -1.37650000
H        1.24950000      -2.39210000      -0.10730000
H       -0.22740000      -2.69010000      -1.02140000
H        2.58950000      -2.46290000      -2.28330000
H        2.28140000      -4.93610000      -2.76640000
H        0.63860000      -4.88680000      -1.94820000
H       -0.54930000      -2.09670000      -4.01220000
