16
Properties=species:S:1:pos:R:3 gdb_47476=T pbc="F F F"
O       -0.11480000      -0.04510000      -0.24650000
C       -0.05400000       1.14670000      -0.11350000
O       -1.14310000       1.94480000       0.08010000
C       -0.73860000       3.32020000       0.09540000
C        0.78590000       3.28690000       0.30600000
N        1.07730000       1.93890000      -0.14170000
C        2.39210000       1.33090000      -0.03700000
C        2.96440000       1.40110000       1.31000000
C        3.42620000       1.48390000       2.41620000
H       -1.00520000       3.77540000      -0.86450000
H       -1.27520000       3.83180000       0.89600000
H        1.30370000       4.03990000      -0.29670000
H        1.06980000       3.43070000       1.35720000
H        2.26650000       0.28730000      -0.34260000
H        3.07530000       1.80710000      -0.75150000
H        3.83860000       1.53530000       3.39370000
