20
Properties=species:S:1:pos:R:3 gdb_82875=T pbc="F F F"
C       -0.19400000       1.61250000      -0.05220000
C        0.05420000       0.11220000       0.00160000
C        1.11940000      -0.61440000      -0.88140000
C        2.40960000       0.06900000      -0.41900000
N        2.34950000      -0.33920000       1.02710000
C        2.49950000      -1.83910000       0.84850000
C        1.12070000      -1.78550000       0.19980000
O        0.29160000      -2.85530000      -0.10580000
C        0.80770000      -0.57750000       1.14130000
H        0.70670000       2.19970000       0.14300000
H       -0.58600000       1.90950000      -1.03150000
H       -0.93670000       1.90030000       0.70000000
H       -0.89470000      -0.42490000      -0.10770000
H        0.94770000      -0.81950000      -1.93750000
H        3.32170000      -0.31770000      -0.87930000
H        2.40710000       1.15510000      -0.52850000
H        3.38700000      -2.15730000       0.29220000
H        2.47820000      -2.33370000       1.82590000
H        0.19430000      -3.40060000       0.68230000
H        0.47210000      -0.64130000       2.17610000
