16
Properties=species:S:1:pos:R:3 gdb_132494=T pbc="F F F"
C       -0.05880000       1.53120000      -0.01460000
C       -0.01150000       0.02740000      -0.02400000
C        0.00630000      -0.70340000      -1.20280000
C        0.02630000      -2.09130000      -1.14210000
F        0.04100000      -2.81220000      -2.27190000
C        0.03090000      -2.72240000       0.08720000
N        0.02600000      -2.03870000       1.23450000
C        0.00160000      -0.70590000       1.18670000
N       -0.07200000      -0.04930000       2.40960000
H        0.84760000       1.96590000       0.42900000
H       -0.14840000       1.93060000      -1.02750000
H       -0.90880000       1.89590000       0.57420000
H       -0.00260000      -0.20830000      -2.16830000
H        0.04500000      -3.80710000       0.14650000
H        0.15300000      -0.65700000       3.18480000
H        0.38470000       0.84850000       2.46360000
