18
Properties=species:S:1:pos:R:3 gdb_60895=T pbc="F F F"
O        0.05650000       1.47750000       0.10590000
C        0.03410000       0.07620000       0.04750000
C        0.65010000      -0.41270000      -1.24620000
O        1.10770000       0.35370000      -2.05970000
C        0.75570000      -0.51500000       1.25490000
C        2.22970000      -0.33710000       1.68830000
N        1.66090000      -1.20900000       2.82310000
C        0.44320000      -0.26750000       2.74700000
C        0.95780000      -1.98490000       1.69540000
H        0.47460000       1.76470000      -0.72180000
H       -1.00700000      -0.29840000       0.06000000
H        0.66220000      -1.50970000      -1.40550000
H        3.00670000      -0.83810000       1.10370000
H        2.54910000       0.65430000       2.01600000
H        0.63250000       0.73010000       3.14820000
H       -0.47090000      -0.70280000       3.16040000
H        0.08380000      -2.54880000       2.03340000
H        1.63780000      -2.61440000       1.11400000
