17
Properties=species:S:1:pos:R:3 gdb_5915=T pbc="F F F"
C        0.18360000       1.65670000       0.28510000
C        0.09190000       0.13270000       0.06690000
C        0.77370000      -0.61130000       1.23320000
C       -1.37560000      -0.32480000      -0.11420000
C       -2.20150000      -0.04960000       1.05780000
N       -2.83770000       0.17670000       1.99590000
C        0.85880000      -0.20030000      -1.20700000
O        0.39210000      -0.72910000      -2.18180000
H        1.22750000       1.97950000       0.34990000
H       -0.29250000       2.20730000      -0.53250000
H       -0.31350000       1.93440000       1.21880000
H        0.28350000      -0.36040000       2.17820000
H        0.72310000      -1.69660000       1.09940000
H        1.82770000      -0.32730000       1.31420000
H       -1.81390000       0.17190000      -0.98600000
H       -1.40550000      -1.39780000      -0.32980000
H        1.93280000       0.09500000      -1.16970000
