10
Properties=species:S:1:pos:R:3 gdb_3904=T pbc="F F F"
O       -0.04260000      -0.09150000       0.00330000
C        0.03780000       1.11840000       0.00870000
N       -1.12320000       1.92220000       0.02820000
N       -1.22530000       3.25660000       0.03670000
N       -0.15700000       3.95330000       0.02630000
C        1.06200000       3.30270000       0.00690000
C        1.21760000       1.95710000      -0.00230000
H       -2.01560000       1.44200000       0.03740000
H        1.91300000       3.97540000      -0.00080000
H        2.18980000       1.48040000      -0.01770000
