21
Properties=species:S:1:pos:R:3 gdb_79399=T pbc="F F F"
C       -0.17070000       1.58400000      -0.02550000
C       -0.03930000       0.06850000       0.01370000
C        1.17670000      -0.61210000      -0.65390000
C        2.12450000      -0.31580000       0.55990000
C        2.58320000      -1.78700000       0.66200000
C        1.09090000      -1.84900000       0.28380000
O        0.30040000      -2.94790000      -0.00360000
C        0.71240000      -0.60650000       1.19170000
C        0.35150000      -0.62380000       2.65250000
H        0.77730000       2.08230000       0.20300000
H       -0.49410000       1.92470000      -1.01550000
H       -0.91460000       1.93520000       0.69880000
H       -0.99580000      -0.41180000      -0.22580000
H        1.47590000      -0.63170000      -1.70330000
H        2.72190000       0.58090000       0.70590000
H        3.29510000      -2.13250000      -0.09440000
H        2.86930000      -2.14950000       1.65570000
H        0.25130000      -3.50180000       0.78320000
H        1.09480000      -1.17060000       3.24450000
H        0.28820000       0.39140000       3.06000000
H       -0.62210000      -1.10280000       2.81100000
