13
Properties=species:S:1:pos:R:3 gdb_3998=T pbc="F F F"
O       -0.10170000       1.46310000       0.01090000
N        0.07110000       0.08900000       0.00180000
C       -1.04310000      -0.54800000       0.00900000
C       -1.01090000      -2.06870000       0.00060000
C        0.31560000      -2.66810000      -0.01530000
C        1.38790000      -3.20750000      -0.02840000
C       -2.32980000       0.06230000       0.02460000
C       -3.44510000       0.51520000       0.03780000
H        0.80720000       1.78450000       0.00390000
H       -1.57090000      -2.42330000       0.87650000
H       -1.58750000      -2.41390000      -0.86840000
H        2.34320000      -3.67080000      -0.03990000
H       -4.41920000       0.93890000       0.04940000
