17
Properties=species:S:1:pos:R:3 gdb_30117=T pbc="F F F"
C        0.32250000       1.48960000      -0.43350000
N       -0.02040000       0.13460000      -0.02090000
C        1.07100000      -0.81840000       0.08750000
C        0.39460000      -0.32620000       1.32280000
C        1.12220000       0.52930000       2.26970000
C        2.41830000       0.86380000       2.50350000
N        2.49350000       1.74100000       3.57790000
C        1.26270000       1.88960000       3.94240000
O        0.36600000       1.19590000       3.20880000
H        1.30310000       1.83600000      -0.07390000
H        0.32250000       1.52610000      -1.52710000
H       -0.44290000       2.18090000      -0.06780000
H        0.87370000      -1.82470000      -0.27200000
H        2.08210000      -0.45950000      -0.10210000
H       -0.35660000      -0.95790000       1.79180000
H        3.30240000       0.52770000       1.98610000
H        0.87040000       2.48780000       4.75000000
