17
Properties=species:S:1:pos:R:3 gdb_14248=T pbc="F F F"
C       -0.00180000       1.58270000      -0.07020000
C        0.01290000       0.06150000       0.01030000
C        1.05380000      -0.67230000      -0.89870000
N        1.75700000      -1.19720000       0.31760000
C        0.71610000      -0.61370000       1.23710000
C        1.82400000       0.11740000       2.02870000
C        2.75150000      -0.35100000       0.88170000
O        3.84270000      -0.06150000       0.48630000
H        1.00510000       2.00620000       0.00280000
H       -0.42430000       1.91130000      -1.02550000
H       -0.60980000       2.01640000       0.73120000
H       -1.00230000      -0.32180000      -0.12360000
H        0.64460000      -1.47940000      -1.51090000
H        1.69360000      -0.03900000      -1.52010000
H        0.10610000      -1.32640000       1.79540000
H        1.75820000       1.20220000       2.12880000
H        2.04010000      -0.31700000       3.00810000
