19
Properties=species:S:1:pos:R:3 gdb_68366=T pbc="F F F"
C       -0.09280000       1.52750000       0.02370000
C        0.04540000       0.02180000       0.05480000
C        1.05020000      -0.71520000      -0.89340000
C        1.05010000      -1.82390000       0.20320000
C        0.78370000      -0.68980000       1.23000000
N       -0.16280000      -2.63020000       0.10110000
C       -1.35590000      -1.99840000      -0.21670000
O       -2.36500000      -2.58180000      -0.56310000
N       -1.26930000      -0.62290000      -0.06180000
H        0.88380000       2.00470000       0.14140000
H       -0.51960000       1.86400000      -0.92860000
H       -0.74610000       1.87510000       0.83120000
H        0.70690000      -0.98300000      -1.89550000
H        2.00980000      -0.19510000      -0.94220000
H        1.91740000      -2.47250000       0.32490000
H        1.70250000      -0.16550000       1.50100000
H        0.19870000      -0.93820000       2.11700000
H       -0.10190000      -3.58100000      -0.22540000
H       -2.02400000      -0.11410000      -0.49540000
