17
Properties=species:S:1:pos:R:3 gdb_91243=T pbc="F F F"
C       -0.24510000       1.59960000      -0.07710000
C        0.09650000       0.13040000      -0.00690000
O        0.76950000      -0.27630000      -1.18370000
C        1.55530000      -1.40740000      -0.84410000
C        3.03370000      -1.19740000      -1.24850000
C        3.28510000      -0.64170000       0.17130000
O        4.17180000      -0.03370000       0.68680000
C        1.87780000      -1.12860000       0.65090000
O        0.98760000      -0.12710000       1.08160000
H        0.66750000       2.18260000      -0.22100000
H       -0.92890000       1.78460000      -0.90930000
H       -0.72780000       1.91130000       0.85220000
H       -0.80790000      -0.48780000       0.13460000
H        1.06960000      -2.34720000      -1.12130000
H        3.57860000      -2.13350000      -1.41140000
H        3.21250000      -0.52320000      -2.08770000
H        1.90360000      -1.97910000       1.34090000
