15
Properties=species:S:1:pos:R:3 gdb_34483=T pbc="F F F"
N       -0.30570000      -0.89680000       0.57500000
C       -0.20780000       0.19350000       0.18770000
C       -0.04810000       1.50020000      -0.32700000
C       -1.06290000       2.39010000      -0.48010000
C       -1.82520000       2.74880000       0.79400000
C       -0.70790000       3.88540000       0.85860000
C       -0.47590000       3.81500000      -0.59810000
N        0.68160000       3.68160000       0.25620000
C        1.21610000       2.32580000      -0.02290000
H       -2.78880000       3.25290000       0.67420000
H       -1.88160000       1.97760000       1.56410000
H       -0.78700000       4.76570000       1.48700000
H       -0.57690000       4.54000000      -1.39600000
H        1.72030000       1.88900000       0.84480000
H        1.94800000       2.42340000      -0.83250000
