15
Properties=species:S:1:pos:R:3 gdb_28850=T pbc="F F F"
O       -0.07760000       1.39260000       0.01100000
C        0.05350000       0.03940000       0.00260000
C        1.28410000      -0.55330000      -0.00810000
C        1.58490000      -1.94430000      -0.01760000
C        0.77640000      -3.03670000      -0.01910000
C       -0.68120000      -3.13750000      -0.01160000
O       -1.22770000      -4.23830000      -0.01440000
C       -1.52890000      -1.92960000       0.00110000
C       -1.22710000      -0.61310000       0.00690000
H        0.79470000       1.80310000       0.00800000
H        2.14480000       0.11330000      -0.00960000
H        2.65210000      -2.15690000      -0.02500000
H        1.25180000      -4.01360000      -0.02730000
H       -2.58360000      -2.19340000       0.00620000
H       -2.05640000       0.08940000       0.01620000
