16
Properties=species:S:1:pos:R:3 gdb_28530=T pbc="F F F"
N        0.02610000       1.40900000       0.13360000
C        0.00960000      -0.00740000       0.02490000
C       -1.14210000      -0.77290000       0.04760000
N       -1.16550000      -2.11410000       0.00530000
C        0.00470000      -2.72910000      -0.08790000
O       -0.00840000      -4.08300000      -0.15010000
C        1.23740000      -2.07640000      -0.11750000
C        1.24930000      -0.68740000      -0.04660000
N        2.41310000       0.06330000      -0.08500000
H        0.43430000       1.84440000      -0.68930000
H       -0.90740000       1.78340000       0.25650000
H       -2.11100000      -0.27930000       0.11240000
H       -0.94200000      -4.33130000      -0.10950000
H        2.15540000      -2.64950000      -0.17610000
H        3.25800000      -0.44020000       0.14260000
H        2.33440000       0.94240000       0.41120000
