19
Properties=species:S:1:pos:R:3 gdb_65535=T pbc="F F F"
C       -0.09820000       1.54810000       0.00470000
C        0.02970000       0.01550000       0.03550000
C        1.03050000      -0.58400000      -1.05310000
N        2.03400000      -1.30540000      -0.23300000
C        1.11900000      -1.98850000       0.76930000
C        0.78790000      -0.55910000       1.26740000
C        2.26060000      -0.29130000       0.86830000
C       -1.30710000      -0.57110000      -0.07960000
N       -2.36440000      -1.03070000      -0.17550000
H        0.88130000       2.02250000       0.10130000
H       -0.54250000       1.87840000      -0.93850000
H       -0.73570000       1.90480000       0.81870000
H        0.53670000      -1.27130000      -1.74170000
H        1.51010000       0.21220000      -1.62770000
H        0.32280000      -2.59910000       0.33670000
H        1.70880000      -2.57520000       1.47570000
H        0.36740000      -0.33740000       2.24940000
H        2.97930000      -0.67850000       1.59320000
H        2.56870000       0.70150000       0.53210000
