25
Properties=species:S:1:pos:R:3 gdb_118183=T pbc="F F F"
C        0.16220000       1.59490000       0.08150000
C       -0.08300000       0.08680000      -0.02490000
C        0.65280000      -0.55070000      -1.21000000
C        0.52960000      -2.08240000      -1.30680000
C       -0.91690000      -2.54580000      -1.53610000
C        1.45150000      -2.62150000      -2.40990000
C        1.70880000      -4.12410000      -2.35770000
C        2.38970000      -4.72590000      -3.57560000
O        1.40560000      -4.80090000      -1.40120000
H        1.22830000       1.81570000       0.20730000
H       -0.17680000       2.11590000      -0.82110000
H       -0.37010000       2.02760000       0.93430000
H        0.23830000      -0.40370000       0.90360000
H       -1.16030000      -0.09670000      -0.10900000
H        0.29440000      -0.09650000      -2.14590000
H        1.71760000      -0.28730000      -1.13820000
H        0.87530000      -2.51800000      -0.36090000
H       -0.96840000      -3.63520000      -1.60440000
H       -1.57410000      -2.23790000      -0.71840000
H       -1.32050000      -2.12210000      -2.46470000
H        1.07070000      -2.36060000      -3.40760000
H        2.44080000      -2.14230000      -2.35120000
H        3.26850000      -4.14030000      -3.86600000
H        2.67720000      -5.75780000      -3.37030000
H        1.70020000      -4.70660000      -4.42810000
