17
Properties=species:S:1:pos:R:3 gdb_80509=T pbc="F F F"
C       -0.09840000       1.57350000       0.02500000
C        0.16160000       0.08270000       0.03520000
O        1.32070000      -0.35140000      -0.75520000
C        1.77740000      -1.18120000       0.31440000
C        2.22020000      -0.31200000       1.42770000
O        2.79830000       0.92700000       1.19480000
C        0.71430000      -0.61680000       1.28680000
C       -0.06200000      -1.22340000       2.30610000
C       -0.73110000      -1.72350000       3.17360000
H        0.73010000       2.13140000       0.46340000
H       -0.26950000       1.91900000      -0.99970000
H       -1.00200000       1.78390000       0.60660000
H       -0.71290000      -0.46460000      -0.33580000
H        2.08860000      -2.19350000       0.08120000
H        2.65480000      -0.81800000       2.28450000
H        2.74270000       1.07000000       0.23950000
H       -1.31830000      -2.16430000       3.94050000
