14
Properties=species:S:1:pos:R:3 gdb_125496=T pbc="F F F"
C       -0.02530000       1.48050000       0.00410000
C        0.00170000      -0.00590000      -0.01910000
N       -0.01950000      -0.72300000      -1.09670000
N        0.01920000      -2.03580000      -0.64610000
C        0.01230000      -3.13940000      -1.50090000
O       -0.02670000      -3.07270000      -2.69770000
C        0.06590000      -2.12760000       0.75820000
O        0.10640000      -3.11020000       1.45750000
N        0.05250000      -0.78470000       1.12050000
H        0.86790000       1.88230000       0.49470000
H       -0.06360000       1.84950000      -1.02110000
H       -0.90100000       1.84940000       0.54890000
H        0.04900000      -4.06860000      -0.90940000
H        0.07740000      -0.47490000       2.07710000
