16
Properties=species:S:1:pos:R:3 gdb_6182=T pbc="F F F"
C       -0.00390000       1.53450000      -0.01950000
C       -0.00760000       0.00220000       0.03560000
C       -1.42830000      -0.56680000      -0.05900000
O        0.75230000      -0.49190000      -1.08870000
C        1.82800000      -1.22910000      -0.66250000
O        2.60400000      -1.74080000      -1.41900000
C        1.79860000      -1.23690000       0.82200000
C        0.74700000      -0.53170000       1.22900000
H        1.01940000       1.91690000       0.00820000
H       -0.47950000       1.87500000      -0.94310000
H       -0.55620000       1.95010000       0.82890000
H       -1.90420000      -0.22790000      -0.98310000
H       -1.40500000      -1.65920000      -0.05820000
H       -2.03400000      -0.22880000       0.78750000
H        2.54420000      -1.75330000       1.40840000
H        0.43040000      -0.33620000       2.24610000
