16
Properties=species:S:1:pos:R:3 gdb_22053=T pbc="F F F"
C        0.00690000       1.48910000      -0.03030000
C        0.04570000      -0.02370000       0.03510000
O        0.09010000      -0.64200000       1.07840000
C        0.02630000      -0.70300000      -1.24590000
C        0.00960000      -1.25730000      -2.32140000
C       -0.00660000      -1.98980000      -3.53830000
C        0.03170000      -3.49750000      -3.50880000
N       -0.05420000      -1.28500000      -4.61930000
O       -0.06570000      -2.09850000      -5.74100000
H        0.86180000       1.86290000      -0.60410000
H       -0.89680000       1.81990000      -0.55320000
H        0.02610000       1.89810000       0.98090000
H       -0.85130000      -3.90500000      -4.01090000
H        0.90550000      -3.86140000      -4.05830000
H        0.06850000      -3.86450000      -2.48370000
H       -0.10170000      -1.46030000      -6.46270000
