17
Properties=species:S:1:pos:R:3 gdb_21178=T pbc="F F F"
C       -0.04020000       1.44450000       0.12450000
N        0.03040000       0.02470000      -0.17760000
C       -1.15300000      -0.71290000      -0.07480000
C       -1.29180000      -2.09140000      -0.03340000
N       -2.62980000      -2.35060000      -0.00360000
C       -3.27120000      -3.64030000       0.11600000
N       -3.36860000      -1.23430000      -0.01670000
C       -2.48480000      -0.23430000      -0.05980000
H        0.96330000       1.87240000       0.06180000
H       -0.66220000       1.95180000      -0.62080000
H       -0.45680000       1.66960000       1.12010000
H        0.80780000      -0.42680000       0.28280000
H       -0.55980000      -2.88330000      -0.03110000
H       -3.19180000      -4.03600000       1.13520000
H       -4.32360000      -3.50850000      -0.13430000
H       -2.81860000      -4.35490000      -0.57740000
H       -2.83350000       0.78640000      -0.08910000
