17
Properties=species:S:1:pos:R:3 gdb_54106=T pbc="F F F"
N        0.25360000       0.81430000       1.11940000
C        0.10600000       0.04070000       0.00920000
O        0.92230000       0.01510000      -0.89390000
C       -1.18830000      -0.79090000       0.01760000
O       -2.20100000      -0.11150000       0.75070000
C       -1.63830000      -1.58080000      -1.25450000
C       -0.48150000      -2.58220000      -1.01410000
C       -1.16330000      -2.32100000       0.35000000
N       -2.48730000      -2.49320000      -0.37530000
H        1.08630000       1.37180000       1.21170000
H       -0.45850000       0.83350000       1.82840000
H       -2.44240000       0.68490000       0.26440000
H       -2.00390000      -1.17380000      -2.19850000
H       -0.67930000      -3.57790000      -1.40880000
H        0.53260000      -2.22900000      -1.16990000
H       -0.96730000      -2.77850000       1.32110000
H       -3.18840000      -1.92250000       0.10350000
