15
Properties=species:S:1:pos:R:3 gdb_5248=T pbc="F F F"
O       -0.11180000       1.44720000       0.03420000
C       -0.12810000       0.08560000       0.43470000
C       -1.09910000      -0.63170000      -0.49670000
C       -1.21250000      -2.08320000      -0.18450000
N       -0.60500000      -2.76520000       0.73540000
C       -1.07730000      -4.06480000       0.58060000
C       -1.95880000      -4.09380000      -0.44270000
O       -2.05810000      -2.82620000      -0.94680000
H        0.49610000       1.91990000       0.60970000
H        0.86630000      -0.37610000       0.35840000
H       -0.46010000      -0.03160000       1.47580000
H       -2.08590000      -0.15850000      -0.42710000
H       -0.77120000      -0.49930000      -1.53480000
H       -0.74590000      -4.87080000       1.21540000
H       -2.56020000      -4.85090000      -0.91490000
