16
Properties=species:S:1:pos:R:3 gdb_67305=T pbc="F F F"
O       -0.11540000       1.34600000      -0.02110000
C       -0.05650000      -0.01610000      -0.02300000
C        0.89900000      -0.99060000      -0.82290000
O        1.93370000      -0.99880000       0.20580000
C        0.68610000      -1.01160000       0.95970000
C       -0.06190000      -1.94490000      -0.04880000
C       -1.22870000      -0.96670000      -0.17960000
N       -2.50300000      -0.91100000       0.50860000
C       -2.45910000      -0.95940000      -0.98220000
H        0.77950000       1.68550000       0.10590000
H        1.19230000      -1.00110000      -1.87180000
H        0.72350000      -1.04610000       2.04760000
H       -0.04340000      -3.03150000      -0.06230000
H       -2.75220000      -1.82670000       0.87650000
H       -2.79310000      -0.04780000      -1.46960000
H       -2.75890000      -1.87850000      -1.48010000
