23
Properties=species:S:1:pos:R:3 gdb_100976=T pbc="F F F"
C       -0.00650000       1.59720000       0.12670000
C       -0.07680000       0.07740000       0.28880000
C       -1.42300000      -0.50410000      -0.17670000
O       -1.68510000      -0.17680000      -1.53670000
C       -1.49690000      -2.01180000      -0.00430000
O       -0.63470000      -2.68410000      -0.90430000
C       -1.75020000      -2.65690000       1.33370000
C       -2.79090000      -2.73510000       0.22760000
C       -4.12930000      -2.04070000       0.34220000
H        0.97710000       1.98340000       0.41090000
H       -0.20370000       1.87630000      -0.91130000
H       -0.75480000       2.09420000       0.75430000
H        0.73120000      -0.38780000      -0.29320000
H        0.08650000      -0.20300000       1.33740000
H       -2.22150000      -0.03300000       0.40800000
H       -1.22590000      -0.85110000      -2.05450000
H        0.26320000      -2.62110000      -0.55960000
H       -1.18880000      -3.55340000       1.57370000
H       -1.95820000      -2.01020000       2.18150000
H       -2.82240000      -3.69410000      -0.28240000
H       -4.06750000      -1.12770000       0.94150000
H       -4.51960000      -1.76540000      -0.64290000
H       -4.86060000      -2.69680000       0.82630000
