21
Properties=species:S:1:pos:R:3 gdb_110527=T pbc="F F F"
C        0.04010000       1.51770000      -0.13780000
C       -0.07870000      -0.00280000       0.01350000
C        0.74060000      -0.54990000       1.17860000
C        0.89670000      -2.05410000       1.40440000
C        2.14770000      -2.53170000       0.59850000
C        2.73660000      -1.30350000      -0.08960000
C        2.30530000      -0.50070000       1.16830000
C        2.27290000      -1.89370000       1.96060000
O        2.76200000      -2.31110000       3.17010000
H        1.07440000       1.81730000      -0.33920000
H       -0.57850000       1.88760000      -0.96140000
H       -0.27940000       2.03220000       0.77560000
H       -1.13080000      -0.27410000       0.17410000
H        0.21440000      -0.49430000      -0.92090000
H        0.39340000      -0.09240000       2.11360000
H        0.14780000      -2.77540000       1.70760000
H        2.24940000      -3.57680000       0.33450000
H        3.82610000      -1.37480000      -0.16230000
H        2.33400000      -0.98860000      -1.05790000
H        2.83500000       0.40340000       1.46230000
H        3.71210000      -2.45150000       3.08560000
