14
Properties=species:S:1:pos:R:3 gdb_56093=T pbc="F F F"
N       -0.12600000       1.30670000      -0.08580000
C        0.05850000      -0.03890000      -0.00850000
O        1.12140000      -0.60860000       0.06320000
O       -1.14810000      -0.67300000      -0.05350000
C       -1.04590000      -2.10280000      -0.02780000
C       -2.37980000      -2.67190000      -0.00340000
C       -3.46720000      -3.19570000       0.01760000
C       -4.78520000      -3.77670000       0.04220000
O       -5.00830000      -4.96490000       0.05770000
H        0.67110000       1.88670000       0.10850000
H       -1.04680000       1.69090000       0.03640000
H       -0.49440000      -2.45460000      -0.90770000
H       -0.47300000      -2.42170000       0.85030000
H       -5.60510000      -3.03020000       0.04600000
