21
Properties=species:S:1:pos:R:3 gdb_92444=T pbc="F F F"
C       -0.11690000       1.51070000       0.03600000
C        0.05020000      -0.00500000       0.00340000
C        1.04550000      -0.59510000      -1.03230000
C        2.37790000      -0.09430000      -0.45580000
O        2.18220000      -0.16710000       0.96960000
C        0.83490000      -0.62250000       1.17180000
C        0.80880000      -2.12650000       0.84430000
O       -0.42890000      -2.66270000       1.28890000
C        0.95830000      -2.10690000      -0.71520000
H        0.82280000       2.01960000       0.26610000
H       -0.48370000       1.88790000      -0.92460000
H       -0.84340000       1.80030000       0.80230000
H       -0.92590000      -0.49080000      -0.08690000
H        0.88180000      -0.33220000      -2.07860000
H        3.22700000      -0.72620000      -0.74470000
H        2.60730000       0.93950000      -0.74340000
H        0.52910000      -0.37470000       2.18840000
H        1.65340000      -2.62750000       1.33390000
H       -0.46660000      -3.58760000       1.02620000
H        0.06700000      -2.55350000      -1.16690000
H        1.83450000      -2.65970000      -1.06700000
