16
Properties=species:S:1:pos:R:3 gdb_31105=T pbc="F F F"
N        0.06140000       1.38880000       0.03280000
C       -0.10530000       0.00870000       0.06420000
C       -1.17060000      -0.78310000       0.32200000
C       -0.74940000      -2.16050000       0.20960000
C       -1.57900000      -3.39120000       0.38080000
O       -2.69300000      -3.44240000      -0.51030000
C        0.56810000      -2.08400000      -0.12290000
O        1.46890000      -3.05590000      -0.35350000
O        1.00350000      -0.81150000      -0.21730000
H        0.35010000       1.73220000      -0.87780000
H        0.72740000       1.72290000       0.72230000
H       -2.16220000      -0.43380000       0.56360000
H       -0.93920000      -4.28000000       0.27720000
H       -2.02360000      -3.42830000       1.38180000
H       -2.34820000      -3.30150000      -1.39820000
H        2.31250000      -2.63970000      -0.56470000
