17
Properties=species:S:1:pos:R:3 gdb_62323=T pbc="F F F"
N        0.04590000       1.53530000      -0.09240000
C       -0.05210000       0.09960000       0.01260000
C        0.99360000      -0.61400000      -0.71670000
N        1.84720000      -1.11840000      -1.31410000
C       -0.45720000      -0.68270000       1.25570000
C       -1.64650000      -0.13650000       2.09210000
C       -2.29700000       1.12580000       1.59090000
C       -2.53040000      -0.16700000       0.85480000
C       -1.34100000      -0.71290000       0.01840000
H        0.94280000       1.85020000       0.26580000
H       -0.00900000       1.81770000      -1.06670000
H        0.19990000      -1.45680000       1.63070000
H       -1.85660000      -0.54900000       3.07000000
H       -3.15270000       1.41730000       2.19500000
H       -1.73030000       1.93880000       1.16590000
H       -3.51380000      -0.60620000       0.75050000
H       -1.46460000      -1.51360000      -0.69940000
