22
Properties=species:S:1:pos:R:3 gdb_104341=T pbc="F F F"
C        0.06320000       1.55930000       0.09010000
C       -0.05190000       0.03240000       0.04660000
C       -1.47780000      -0.52300000      -0.09790000
C       -2.18010000      -0.00880000      -1.36010000
C       -1.46590000      -2.05820000      -0.03180000
C       -2.88140000      -2.61110000       0.16150000
N       -3.63830000      -1.90560000       1.18940000
C       -3.24150000      -0.75290000       1.52480000
O       -2.20880000      -0.01470000       1.05450000
H        1.09550000       1.85440000       0.30090000
H       -0.22050000       2.02220000      -0.85970000
H       -0.57480000       1.97400000       0.87460000
H        0.54770000      -0.36740000      -0.78070000
H        0.37000000      -0.38650000       0.96750000
H       -1.61580000      -0.29660000      -2.25300000
H       -3.18910000      -0.41960000      -1.44630000
H       -2.26490000       1.07960000      -1.33920000
H       -1.00250000      -2.46480000      -0.93700000
H       -0.84180000      -2.36230000       0.81650000
H       -3.45050000      -2.57660000      -0.77710000
H       -2.83640000      -3.66980000       0.44050000
H       -3.75160000      -0.20160000       2.31380000
