18
Properties=species:S:1:pos:R:3 gdb_6730=T pbc="F F F"
C       -0.71620000       1.00930000      -0.29910000
C        0.67130000       0.50670000       0.14050000
C        1.34640000      -0.26970000      -0.89390000
C        1.87330000      -0.90970000      -1.76630000
C        2.50830000      -1.68840000      -2.81500000
C        1.53950000      -2.49500000      -3.70060000
C        2.20850000      -3.32160000      -4.78620000
O        0.34540000      -2.47370000      -3.54710000
H       -0.63410000       1.65700000      -1.17610000
H       -1.36570000       0.17030000      -0.56160000
H       -1.18940000       1.57730000       0.50760000
H        1.29890000       1.36150000       0.42450000
H        0.56920000      -0.10490000       1.04620000
H        3.10050000      -1.04440000      -3.48170000
H        3.23590000      -2.39750000      -2.39380000
H        2.89560000      -4.05110000      -4.34250000
H        1.44980000      -3.84260000      -5.37050000
H        2.80610000      -2.68140000      -5.44470000
