15
Properties=species:S:1:pos:R:3 gdb_56720=T pbc="F F F"
O        0.47720000       1.58280000      -0.05440000
C        0.14480000       0.20810000       0.02920000
C        0.48650000      -0.52840000      -1.19050000
C        0.79430000      -1.11360000      -2.19350000
C        0.79680000      -0.43040000       1.26670000
C        0.03340000      -0.48890000       2.52690000
O        0.19180000      -1.64870000       1.71040000
C        2.23870000      -0.36060000       1.29480000
C        3.43640000      -0.25890000       1.27590000
H        1.41990000       1.63760000      -0.25460000
H       -0.93900000       0.17060000       0.18200000
H        1.05660000      -1.63740000      -3.07960000
H        0.57160000      -0.50410000       3.47200000
H       -0.96850000      -0.06290000       2.55590000
H        4.49660000      -0.18880000       1.27230000
