18
Properties=species:S:1:pos:R:3 gdb_55451=T pbc="F F F"
O       -0.25270000      -0.05630000      -0.23120000
C       -0.05290000       1.25080000      -0.02670000
O        1.01950000       1.73270000       0.21620000
C       -1.35420000       2.08980000      -0.09180000
N       -2.39350000       1.32160000      -0.79040000
H       -2.24370000       1.39340000      -1.79150000
H       -1.21530000      -0.13340000      -0.41850000
C       -3.77260000       1.71830000      -0.47280000
C       -4.04510000       1.49970000       1.01440000
C       -2.94570000       2.11280000       1.83900000
C       -1.75320000       2.40780000       1.32840000
H       -1.08310000       3.02420000      -0.60710000
H       -3.95860000       2.77630000      -0.71960000
H       -4.44640000       1.11350000      -1.08690000
H       -5.01220000       1.94300000       1.27800000
H       -4.12900000       0.42580000       1.23050000
H       -3.15310000       2.32780000       2.88360000
H       -0.97220000       2.86580000       1.92620000
