17
Properties=species:S:1:pos:R:3 gdb_102274=T pbc="F F F"
C       -0.23760000       1.40910000      -0.06920000
C        0.01880000      -0.07310000      -0.00750000
O        1.08910000      -0.61440000      -0.07620000
O       -1.15220000      -0.75390000       0.14810000
C       -1.07290000      -2.17480000       0.05150000
C       -2.32180000      -2.73630000       0.72950000
O       -3.50330000      -2.32600000       0.07540000
C       -1.00400000      -2.59830000      -1.41220000
O       -0.93310000      -1.83360000      -2.33380000
H        0.70760000       1.94490000       0.00760000
H       -0.71430000       1.64630000      -1.02540000
H       -0.91950000       1.71840000       0.72650000
H       -0.16620000      -2.54020000       0.55090000
H       -2.29790000      -3.83020000       0.68580000
H       -2.30880000      -2.44220000       1.78920000
H       -3.48050000      -1.36340000       0.02820000
H       -1.02200000      -3.70160000      -1.55670000
