24
Properties=species:S:1:pos:R:3 gdb_123170=T pbc="F F F"
C       -0.05850000       1.38340000      -0.14590000
O       -0.02060000      -0.01060000       0.03020000
C       -1.29540000      -0.61000000      -0.05420000
C       -1.14500000      -2.11160000       0.14680000
C       -2.48170000      -2.85350000       0.05990000
C       -2.33470000      -4.36090000       0.26670000
N       -3.63250000      -5.02570000       0.20770000
C       -4.06810000      -5.47060000      -1.11250000
C       -3.61460000      -6.45270000      -0.08930000
H        0.96680000       1.75350000      -0.06570000
H       -0.45960000       1.66180000      -1.13410000
H       -0.67520000       1.87820000       0.62200000
H       -1.97050000      -0.18560000       0.71010000
H       -1.75420000      -0.39800000      -1.03660000
H       -0.44690000      -2.49440000      -0.60780000
H       -0.67590000      -2.28700000       1.12270000
H       -3.18240000      -2.46670000       0.80960000
H       -2.94530000      -2.67140000      -0.91880000
H       -1.62740000      -4.77250000      -0.47880000
H       -1.90310000      -4.55970000       1.25580000
H       -5.12460000      -5.34690000      -1.33260000
H       -3.40210000      -5.29220000      -1.95610000
H       -2.64870000      -6.92860000      -0.25360000
H       -4.33380000      -7.05930000       0.45380000
