14
Properties=species:S:1:pos:R:3 gdb_129251=T pbc="F F F"
N       -0.08410000       1.30920000       0.01110000
C       -0.05460000       0.04520000       0.00390000
O        1.08270000      -0.73790000      -0.00690000
C        0.76840000      -2.15720000      -0.01300000
C       -0.72650000      -2.18910000      -0.00490000
C       -1.16580000      -0.89110000       0.00480000
N       -2.51300000      -0.91480000       0.01230000
N       -2.98220000      -2.18010000       0.00780000
C       -1.89940000      -2.96630000      -0.00260000
H        0.86110000       1.69470000       0.00800000
H        1.22270000      -2.59970000      -0.90660000
H        1.23260000      -2.60960000       0.87040000
H       -3.15860000      -0.14280000       0.02020000
H       -2.02730000      -4.03800000      -0.00790000
