21
Properties=species:S:1:pos:R:3 gdb_114546=T pbc="F F F"
C       -0.04710000       1.49790000       0.00610000
C        0.05230000      -0.00140000      -0.03850000
C        0.40000000      -0.81160000      -1.31600000
C       -0.46590000      -1.82480000      -0.54420000
C        0.40110000      -2.20940000       0.67030000
C        0.79240000      -0.75960000       1.10230000
C        2.28460000      -0.49980000       1.23170000
O        2.77290000      -1.31980000       2.28580000
O       -1.24180000      -0.69940000      -0.02310000
H        0.94340000       1.95460000      -0.08980000
H       -0.67730000       1.86730000      -0.80740000
H       -0.48250000       1.82580000       0.95610000
H       -0.11690000      -0.41240000      -2.18970000
H        1.44100000      -1.05480000      -1.54520000
H       -1.06820000      -2.59120000      -1.03180000
H       -0.17690000      -2.73470000       1.43250000
H        1.26650000      -2.82430000       0.40740000
H        0.31970000      -0.49920000       2.05420000
H        2.79970000      -0.73040000       0.28520000
H        2.46230000       0.56600000       1.44920000
H        3.71950000      -1.17130000       2.36830000
