18
Properties=species:S:1:pos:R:3 gdb_111663=T pbc="F F F"
C       -0.53400000       0.96610000      -0.13930000
O        0.46870000      -0.01020000       0.10800000
C        0.92880000      -0.62110000      -1.04470000
C        1.44040000      -2.01610000      -0.94160000
C        1.01320000      -2.78760000       0.29740000
O       -0.42100000      -2.86270000       0.27180000
C       -0.93280000      -2.36200000      -0.89090000
N       -2.15220000      -2.41770000      -1.22260000
C        0.15170000      -1.75170000      -1.70730000
H       -0.15180000       1.77270000      -0.78180000
H       -1.41570000       0.51840000      -0.61330000
H       -0.81260000       1.38490000       0.82970000
H        1.44390000       0.04530000      -1.73910000
H        2.36540000      -2.29450000      -1.43100000
H        1.41750000      -3.80560000       0.28650000
H        1.30560000      -2.29430000       1.22850000
H       -2.68940000      -2.91720000      -0.51200000
H        0.05610000      -1.78460000      -2.78380000
