18
Properties=species:S:1:pos:R:3 gdb_84389=T pbc="F F F"
C       -0.23540000       1.56920000      -0.07710000
C        0.10390000       0.08480000      -0.05580000
N        0.99830000      -0.30270000      -1.16100000
C        1.85910000      -1.10140000      -0.66650000
N        1.76630000      -1.40310000       0.68160000
C        2.84910000      -1.97160000       1.45910000
C        0.82080000      -0.44060000       1.25140000
C        1.51640000       0.61060000       2.02180000
N        2.07960000       1.41220000       2.63550000
H        0.66600000       2.17950000       0.02210000
H       -0.71220000       1.81370000      -1.02920000
H       -0.92190000       1.83200000       0.73390000
H       -0.82340000      -0.49420000      -0.16320000
H        2.63650000      -1.58900000      -1.24860000
H        3.46010000      -2.59760000       0.80440000
H        3.49150000      -1.20420000       1.91210000
H        2.45230000      -2.60590000       2.25850000
H        0.11350000      -0.92930000       1.92890000
