17
Properties=species:S:1:pos:R:3 gdb_88305=T pbc="F F F"
C        0.90490000       1.85390000      -0.21870000
C        0.05430000       0.66660000       0.15330000
N        0.64060000      -0.65600000       0.00220000
C        0.31590000      -0.20100000       1.36620000
C        1.46030000       0.06980000       2.28540000
O        2.58990000       0.28970000       1.92910000
C        1.13670000       0.04320000       3.80250000
C       -0.13230000       0.66460000       4.15960000
N       -1.14330000       1.16220000       4.41710000
H        1.94650000       1.68480000       0.05650000
H        0.85440000       2.01730000      -1.30040000
H        0.54210000       2.75990000       0.27730000
H       -1.00650000       0.77160000      -0.07380000
H       -0.05270000      -1.33700000      -0.29690000
H       -0.57050000      -0.60460000       1.84900000
H        1.11700000      -1.00820000       4.11920000
H        1.96390000       0.52850000       4.32570000
