23
Properties=species:S:1:pos:R:3 gdb_83336=T pbc="F F F"
C       -0.23220000       1.58630000       0.86370000
C       -0.05740000       0.11210000       0.52740000
C        0.95020000      -0.39630000      -0.55490000
C        2.29910000       0.16900000      -0.05700000
C        2.16270000      -0.17010000       1.46330000
C        0.77390000      -0.84170000       1.42840000
O        0.20740000      -1.26540000       2.63180000
C        0.92190000      -1.77870000       0.17380000
C       -0.21160000      -2.75300000      -0.11640000
H        0.71520000       2.10880000       1.02110000
H       -0.76410000       2.10580000       0.05900000
H       -0.82650000       1.69790000       1.77710000
H       -1.04200000      -0.32620000       0.35500000
H        0.72980000      -0.30930000      -1.61920000
H        3.14930000      -0.33530000      -0.52510000
H        2.40720000       1.24100000      -0.24150000
H        2.93650000      -0.86200000       1.81430000
H        2.18210000       0.71120000       2.11010000
H        0.88670000      -1.71050000       3.14960000
H        1.87530000      -2.32140000       0.13150000
H       -1.19420000      -2.27790000      -0.16800000
H       -0.04310000      -3.26570000      -1.06960000
H       -0.26330000      -3.51640000       0.66760000
