18
Properties=species:S:1:pos:R:3 gdb_114784=T pbc="F F F"
C       -0.04420000       1.44040000      -0.02450000
O       -0.08480000       0.02360000      -0.06100000
C        0.67530000      -0.52930000      -1.09540000
O        2.08020000      -0.34300000      -0.91410000
C        2.59800000      -1.58700000      -0.45660000
C        1.87750000      -2.06380000       0.82630000
N        0.90120000      -2.87690000       0.01630000
C        1.79300000      -2.69040000      -1.18600000
C        0.47650000      -2.03640000      -1.14230000
H        0.96990000       1.80720000       0.17160000
H       -0.39920000       1.87210000      -0.97250000
H       -0.70910000       1.75750000       0.78140000
H        0.40850000      -0.04620000      -2.04890000
H        3.68560000      -1.55260000      -0.49320000
H        2.47900000      -2.75620000       1.42060000
H        1.43260000      -1.29370000       1.45880000
H        2.11510000      -3.49470000      -1.83570000
H       -0.38430000      -2.43540000      -1.66490000
