20
Properties=species:S:1:pos:R:3 gdb_7156=T pbc="F F F"
C       -0.01000000       1.48660000      -0.13000000
C       -0.00110000      -0.01450000       0.10770000
O       -1.32400000      -0.49130000      -0.05040000
C       -1.45900000      -1.90760000       0.03950000
C       -1.48020000      -2.38780000       1.50050000
C       -2.68380000      -2.29340000      -0.66160000
C       -3.69300000      -2.63860000      -1.21900000
C       -4.91300000      -3.04240000      -1.90250000
H        0.99890000       1.89610000      -0.02160000
H       -0.37350000       1.71220000      -1.13640000
H       -0.66610000       1.98410000       0.58980000
H        0.66950000      -0.51560000      -0.61100000
H        0.38500000      -0.23500000       1.11560000
H       -0.60160000      -2.37830000      -0.47220000
H       -1.60110000      -3.47390000       1.54010000
H       -0.54800000      -2.12800000       2.00990000
H       -2.31490000      -1.92220000       2.03030000
H       -4.69580000      -3.69110000      -2.75840000
H       -5.58500000      -3.58950000      -1.23220000
H       -5.45880000      -2.17020000      -2.27880000
