19
Properties=species:S:1:pos:R:3 gdb_67277=T pbc="F F F"
C       -0.02000000       1.53200000       0.08140000
C       -0.02790000       0.04030000      -0.05280000
C        0.70030000      -0.84870000      -1.10930000
C        1.67510000      -1.20920000       0.01570000
N        0.64230000      -0.82010000       1.03680000
C       -0.53420000      -1.80290000       0.98000000
C       -0.38600000      -2.85670000      -0.12480000
N       -0.51860000      -1.77900000      -1.16650000
C       -1.21390000      -0.92370000      -0.10350000
H        1.00380000       1.91690000       0.13910000
H       -0.51370000       2.00240000      -0.77590000
H       -0.54430000       1.83860000       0.99270000
H        1.04780000      -0.54450000      -2.10000000
H        2.08670000      -2.21850000       0.09680000
H        2.50390000      -0.49520000       0.06820000
H       -0.92400000      -2.05610000       1.96870000
H        0.50300000      -3.49050000      -0.18360000
H       -1.27290000      -3.49750000      -0.17770000
H       -2.27700000      -0.70590000      -0.21650000
