18
Properties=species:S:1:pos:R:3 gdb_26483=T pbc="F F F"
C       -0.27360000       1.38550000      -0.75310000
C       -0.07740000       0.05210000      -0.06990000
C        1.11410000      -0.76310000      -0.38970000
O        1.04630000      -0.02630000       0.83580000
C       -1.29610000      -0.61070000       0.45250000
C       -2.61090000      -0.61220000       0.03410000
C       -3.33790000      -1.45800000       0.91760000
C       -2.44890000      -1.93940000       1.85120000
N       -1.21360000      -1.42760000       1.55210000
H        0.68760000       1.79750000      -1.06920000
H       -0.91150000       1.27340000      -1.63550000
H       -0.75590000       2.09590000      -0.07560000
H        1.06280000      -1.84590000      -0.28800000
H        1.84290000      -0.39590000      -1.11180000
H       -3.00490000      -0.08020000      -0.81810000
H       -4.39210000      -1.68440000       0.87170000
H       -2.59140000      -2.59010000       2.69880000
H       -0.37170000      -1.50930000       2.09770000
