17
Properties=species:S:1:pos:R:3 gdb_65820=T pbc="F F F"
C       -0.01950000       1.54900000       0.06470000
C        0.02410000       0.02660000      -0.04040000
C        0.83220000      -0.51260000      -1.24120000
C        1.43250000      -1.80900000      -0.69470000
O        1.94340000      -2.69850000      -1.31830000
C        1.24740000      -1.75100000       0.82480000
O        0.76020000      -0.45310000       1.10780000
C       -1.33470000      -0.54200000      -0.03910000
C       -2.43860000      -1.01740000      -0.03910000
H        1.00000000       1.94310000       0.08340000
H       -0.55700000       1.97590000      -0.78570000
H       -0.52910000       1.84410000       0.98470000
H        0.24920000      -0.68910000      -2.14520000
H        1.65200000       0.17520000      -1.47960000
H        0.54080000      -2.53820000       1.13020000
H        2.19170000      -1.90670000       1.35380000
H       -3.41610000      -1.43370000      -0.03450000
