21
Properties=species:S:1:pos:R:3 gdb_15428=T pbc="F F F"
C       -0.35660000       1.47080000      -0.02140000
C       -0.20680000      -0.04170000      -0.20090000
C        1.02880000      -0.42900000      -1.02520000
C        1.15020000      -1.92680000      -1.19700000
N        0.35220000      -2.55380000      -2.26860000
C        1.82890000      -2.62150000      -2.32480000
C        2.44070000      -1.94230000      -3.52870000
O        2.10860000      -2.63840000      -4.71910000
H        0.51060000       1.89790000       0.49480000
H       -0.44560000       1.97650000      -0.98930000
H       -1.24710000       1.71690000       0.56540000
H       -0.15220000      -0.52540000       0.78370000
H       -1.09740000      -0.44880000      -0.69480000
H        0.97040000       0.05260000      -2.00620000
H        1.93540000      -0.04760000      -0.53550000
H        1.18330000      -2.46690000      -0.24950000
H       -0.03370000      -3.44080000      -1.95850000
H        2.27930000      -3.58590000      -2.09320000
H        2.12130000      -0.89260000      -3.58260000
H        3.53360000      -1.95420000      -3.45690000
H        1.14550000      -2.69870000      -4.72190000
