20
Properties=species:S:1:pos:R:3 gdb_99976=T pbc="F F F"
C       -0.05610000       1.57520000       0.09000000
C       -0.01550000       0.03830000       0.04760000
C        0.73830000      -0.51160000       1.27070000
C       -1.44840000      -0.52670000       0.02440000
O       -2.11550000      -0.09870000       1.20170000
C        0.68060000      -0.46030000      -1.25290000
O        0.02320000      -0.07200000      -2.44750000
C        2.10190000      -0.05560000      -1.29690000
N        3.20220000       0.29400000      -1.35100000
H        0.95280000       1.99880000       0.10530000
H       -0.59420000       1.98980000      -0.77030000
H       -0.58460000       1.90440000       0.98630000
H        0.18860000      -0.26500000       2.18110000
H        0.83160000      -1.60270000       1.22090000
H        1.74370000      -0.08840000       1.34400000
H       -1.96390000      -0.17620000      -0.87910000
H       -1.40200000      -1.62770000      -0.02390000
H       -3.03360000      -0.37720000       1.14570000
H        0.65340000      -1.55650000      -1.25800000
H        0.13550000       0.87860000      -2.55950000
