14
Properties=species:S:1:pos:R:3 gdb_127970=T pbc="F F F"
C        0.17080000       1.46280000       0.11030000
N        0.31010000       0.02130000       0.08870000
C        0.50520000      -0.60850000      -0.97530000
O        0.60080000       0.03720000      -2.20800000
C        0.81230000      -0.69760000      -3.31690000
N        0.94590000      -1.95520000      -3.42600000
O        0.86380000      -2.69500000      -2.23230000
C        0.65030000      -2.09440000      -1.00960000
N        0.58190000      -2.78950000       0.03880000
H        0.93620000       1.86990000       0.77960000
H        0.24870000       1.95120000      -0.86600000
H       -0.79840000       1.70560000       0.55900000
H        0.87040000      -0.09880000      -4.21770000
H        0.70450000      -3.77950000      -0.18590000
