16
Properties=species:S:1:pos:R:3 gdb_91288=T pbc="F F F"
O        0.24830000       1.27070000      -0.32890000
C        0.11720000      -0.10080000      -0.05930000
C        0.28390000      -0.50910000       1.44080000
C       -1.26140000      -0.61040000       1.58050000
N       -1.94000000       0.60030000       1.96090000
C       -2.60220000       1.22360000       0.92790000
O       -3.31440000       2.18430000       0.97830000
O       -2.32980000       0.53720000      -0.23420000
C       -1.39790000      -0.48760000       0.03430000
H        1.16420000       1.52160000      -0.17130000
H        0.69170000      -0.71140000      -0.76910000
H        0.78170000      -1.47410000       1.57020000
H        0.76540000       0.23810000       2.07540000
H       -1.65680000      -1.49840000       2.08360000
H       -2.13000000       0.88230000       2.90640000
H       -1.67180000      -1.38400000      -0.52210000
