20
Properties=species:S:1:pos:R:3 gdb_113318=T pbc="F F F"
C        0.35960000       1.48550000       0.14900000
C       -0.24120000       0.10580000      -0.14760000
C        0.44590000      -0.55140000      -1.32410000
N        1.69800000      -1.27280000      -1.07460000
C        0.52100000      -2.03470000      -1.56170000
C       -0.01570000      -3.08640000      -0.60550000
N        0.89030000      -4.23180000      -0.60580000
C        0.53830000      -2.43730000      -2.95400000
N        0.55080000      -2.72760000      -4.07370000
H        1.42430000       1.39970000       0.38680000
H        0.25890000       2.15680000      -0.71090000
H       -0.14160000       1.95580000       0.99970000
H       -0.15000000      -0.52920000       0.73750000
H       -1.31120000       0.20130000      -0.36970000
H        0.40370000       0.03820000      -2.23970000
H        2.36610000      -1.12820000      -1.82720000
H       -0.15790000      -2.61840000       0.37840000
H       -0.99900000      -3.41860000      -0.95670000
H        1.77300000      -3.95660000      -0.18500000
H        0.51050000      -4.98160000      -0.03790000
