19
Properties=species:S:1:pos:R:3 gdb_111952=T pbc="F F F"
C       -0.35790000       1.54820000      -0.01320000
C       -0.02380000       0.04990000      -0.03620000
C        0.77740000      -0.43800000      -1.21810000
C        1.86460000      -1.12620000      -0.86560000
C        2.01480000      -1.24910000       0.62860000
C        3.36930000      -0.83140000       1.20140000
O        4.33190000      -1.76670000       0.73910000
C        0.86550000      -0.36840000       1.15020000
O        0.71380000      -0.02320000       2.29440000
H        0.54570000       2.15220000      -0.14250000
H       -1.05610000       1.80600000      -0.81490000
H       -0.81160000       1.81310000       0.94530000
H       -0.96810000      -0.51050000       0.05190000
H        0.47280000      -0.23810000      -2.23990000
H        2.57980000      -1.57000000      -1.54710000
H        1.83960000      -2.28370000       0.96160000
H        3.61180000       0.19030000       0.86950000
H        3.29760000      -0.82050000       2.29800000
H        5.19300000      -1.50370000       1.07710000
