17
Properties=species:S:1:pos:R:3 gdb_47026=T pbc="F F F"
O        0.01150000      -0.02540000      -0.14640000
C        0.00240000       1.16570000       0.02320000
O       -1.20380000       1.81250000       0.11020000
C       -1.26450000       3.16060000       0.61750000
C       -0.23180000       4.01820000      -0.08850000
C        0.49080000       5.23000000       0.59260000
C        1.86600000       4.59340000       0.18230000
C        1.09870000       3.31330000      -0.04290000
C        1.22520000       1.99950000       0.11900000
H       -2.29630000       3.48080000       0.45500000
H       -1.06930000       3.14630000       1.69840000
H       -0.54670000       4.26280000      -1.10940000
H        0.26610000       6.22280000       0.20050000
H        0.35260000       5.22940000       1.67660000
H        2.24790000       5.02480000      -0.74910000
H        2.67430000       4.57710000       0.91680000
H        2.15800000       1.47540000       0.28970000
