18
Properties=species:S:1:pos:R:3 gdb_81057=T pbc="F F F"
C       -0.35140000       1.38230000      -0.10540000
N        0.01220000      -0.04660000      -0.02610000
H       -0.81240000      -0.61220000      -0.22460000
C        0.97210000      -0.66220000       0.99770000
C        1.08900000      -1.87850000       0.05000000
C        1.23070000      -0.62260000      -0.86650000
C        2.16080000      -0.02910000       0.23690000
C        1.14850000      -0.47750000      -2.41050000
O        0.03820000      -0.03400000      -2.76920000
O        2.17430000      -0.83570000      -2.98820000
H       -0.61200000       1.56120000      -1.15070000
H       -1.19550000       1.57510000       0.56060000
H        0.48940000       2.00800000       0.18710000
H        0.71300000      -0.61940000       2.05630000
H        1.98890000      -2.47980000       0.15110000
H        0.19670000      -2.49520000      -0.08860000
H        2.29260000       1.05080000       0.27660000
H        3.11170000      -0.54480000       0.34740000
