17
Properties=species:S:1:pos:R:3 gdb_91555=T pbc="F F F"
O        0.05700000       1.42360000      -0.10720000
C        0.09860000       0.02810000       0.00300000
C        0.32220000      -0.62450000       1.42420000
C       -1.04780000      -1.28660000       1.27320000
O       -2.00070000      -0.22320000       1.07710000
C       -1.25900000      -0.69810000      -0.06270000
C       -2.02170000      -1.12180000      -1.25690000
C       -1.96460000      -0.32350000      -2.49130000
O       -1.22640000      -1.54200000      -2.36800000
H       -0.66240000       1.71590000       0.46770000
H        0.80790000      -0.34050000      -0.74000000
H        1.15760000      -1.32800000       1.43790000
H        0.41180000       0.07580000       2.25810000
H       -1.42580000      -2.21080000       1.69410000
H       -2.90550000      -1.72750000      -1.05820000
H       -2.80220000      -0.35340000      -3.18580000
H       -1.36700000       0.58590000      -2.50230000
