13
Properties=species:S:1:pos:R:3 gdb_5489=T pbc="F F F"
O        0.11270000       1.33520000       0.20630000
C        0.07510000       0.00000000      -0.01300000
C        0.06690000      -0.76690000      -1.13870000
C        0.01940000      -2.14010000      -0.69850000
C        0.00070000      -2.15790000       0.65940000
N        0.03500000      -0.82920000       1.10260000
C        0.02960000      -0.41900000       2.43240000
O       -0.00610000      -1.18320000       3.36220000
H        0.13710000       1.78430000      -0.64430000
H        0.09140000      -0.40890000      -2.15640000
H        0.00170000      -3.00720000      -1.34070000
H       -0.03300000      -2.95060000       1.38550000
H        0.06140000       0.67700000       2.52780000
