20
Properties=species:S:1:pos:R:3 gdb_83382=T pbc="F F F"
C       -0.08010000       1.63880000       0.01500000
C        0.06770000       0.13000000       0.03240000
N        1.03780000      -0.53800000      -0.92840000
C        2.33190000       0.06660000      -0.38610000
C        2.19230000       0.03100000       1.20870000
C        0.85470000      -0.67930000       1.13420000
O        0.06800000      -1.51910000       1.98770000
C       -0.14940000      -2.39870000       0.82420000
C        1.02730000      -1.71130000       0.05090000
H        0.83080000       2.17840000       0.28330000
H       -0.38660000       1.97250000      -0.98230000
H       -0.86160000       1.93780000       0.72120000
H       -0.91600000      -0.31180000      -0.12910000
H        3.17610000      -0.53320000      -0.73110000
H        2.44330000       1.07670000      -0.78050000
H        2.97000000      -0.57230000       1.68140000
H        2.18710000       1.02590000       1.65990000
H        0.06550000      -3.43700000       1.08820000
H       -1.16680000      -2.32070000       0.43250000
H        1.91690000      -2.33950000      -0.01400000
