19
Properties=species:S:1:pos:R:3 gdb_125892=T pbc="F F F"
C       -0.38460000       1.60440000      -0.22790000
C        0.04870000       0.17860000       0.05640000
C        0.75090000      -0.64170000      -1.10910000
C        1.95960000      -0.69540000      -0.18250000
C        3.20100000      -1.04910000       0.32530000
C        4.32030000      -1.84030000      -0.27800000
C        3.16180000      -0.44630000       1.61710000
N        2.01740000       0.20380000       1.89890000
N        1.33850000       0.02600000       0.76120000
H        0.40990000       2.16040000      -0.73430000
H       -1.27530000       1.60750000      -0.86440000
H       -0.62950000       2.12520000       0.70240000
H       -0.75000000      -0.38610000       0.54880000
H        0.27820000      -1.60060000      -1.33580000
H        0.87970000      -0.07590000      -2.03580000
H        5.11840000      -1.99590000       0.45360000
H        3.98960000      -2.82850000      -0.61690000
H        4.76520000      -1.33510000      -1.14330000
H        3.95030000      -0.46720000       2.35750000
