21
Properties=species:S:1:pos:R:3 gdb_111776=T pbc="F F F"
C        0.01060000       1.58880000      -0.08570000
C        0.04550000       0.08020000       0.18570000
C       -1.33050000      -0.56620000       0.06070000
C       -2.03310000      -0.72750000      -1.34170000
C       -1.02540000      -1.59170000      -2.13350000
C       -0.63550000      -2.63880000      -1.02840000
C       -1.50660000      -2.12820000       0.14270000
C       -2.81740000      -1.83160000      -0.60870000
O       -3.95680000      -2.18600000      -0.53970000
H        1.00110000       2.03600000       0.04150000
H       -0.32310000       1.80040000      -1.10710000
H       -0.67620000       2.09890000       0.59850000
H        0.76470000      -0.39370000      -0.48980000
H        0.42060000      -0.10060000       1.20120000
H       -2.02110000      -0.08200000       0.76020000
H       -2.52860000       0.09540000      -1.85290000
H       -1.48800000      -2.05760000      -3.00720000
H       -0.16790000      -1.01150000      -2.48310000
H       -0.89580000      -3.66200000      -1.31110000
H        0.43050000      -2.62190000      -0.78960000
H       -1.48360000      -2.67220000       1.08510000
