18
Properties=species:S:1:pos:R:3 gdb_117132=T pbc="F F F"
C        0.67410000       1.03240000       0.62520000
C        0.00080000      -0.27320000       0.19880000
N        0.69900000      -0.93210000      -0.89320000
C        0.17490000      -1.07680000      -2.12730000
O       -0.93990000      -0.73840000      -2.48680000
C        1.12530000      -1.77230000      -3.12970000
O        2.40700000      -2.02350000      -2.62510000
C        0.47000000      -3.06870000      -3.57710000
O        1.07330000      -4.11310000      -3.51560000
H        1.70300000       0.85930000       0.95870000
H        0.70050000       1.74520000      -0.20400000
H        0.12580000       1.48840000       1.45530000
H       -0.06440000      -0.96090000       1.05100000
H       -1.01530000      -0.08880000      -0.15690000
H        1.65540000      -1.23830000      -0.78340000
H        1.16070000      -1.10550000      -4.00600000
H        2.53810000      -2.98210000      -2.73160000
H       -0.56880000      -2.98870000      -3.93970000
