20
Properties=species:S:1:pos:R:3 gdb_17918=T pbc="F F F"
C       -0.14170000       1.54060000      -0.00190000
C        0.06070000       0.02800000       0.00960000
C        1.05090000      -0.57620000      -1.02020000
C        2.41710000      -0.01630000      -0.55090000
C        2.27270000      -0.02860000       1.00600000
C        0.84680000      -0.58440000       1.18520000
O        0.87620000      -1.98190000       0.85240000
C        0.98810000      -2.04790000      -0.58410000
H        0.79660000       2.09690000       0.07140000
H       -0.63970000       1.85610000      -0.92490000
H       -0.77600000       1.85240000       0.83500000
H       -0.91590000      -0.46390000      -0.06310000
H        0.82350000      -0.41530000      -2.07560000
H        3.24630000      -0.63790000      -0.90000000
H        2.58840000       0.99310000      -0.93430000
H        2.99460000      -0.68640000       1.49450000
H        2.38220000       0.96980000       1.44080000
H        0.41980000      -0.48390000       2.18450000
H        0.11320000      -2.57000000      -0.99510000
H        1.88710000      -2.61390000      -0.85970000
