17
Properties=species:S:1:pos:R:3 gdb_56338=T pbc="F F F"
N       -0.66760000       1.15200000       0.03280000
C       -0.77210000      -0.19710000       0.33070000
O       -0.66000000      -0.64060000       1.46020000
N       -0.99040000      -1.00840000      -0.76240000
C       -0.92480000      -2.45220000      -0.60690000
C       -2.22550000      -3.02980000      -0.05200000
O       -3.29710000      -2.82290000      -0.97750000
C       -4.10930000      -1.77020000      -0.76470000
O       -4.94540000      -1.43180000      -1.54840000
H       -0.73160000       1.73880000       0.85050000
H       -1.16640000       1.50430000      -0.77020000
H       -0.84480000      -0.63010000      -1.68340000
H       -0.72330000      -2.89110000      -1.58730000
H       -0.10970000      -2.72140000       0.07380000
H       -2.13410000      -4.11030000       0.08600000
H       -2.45090000      -2.56640000       0.91390000
H       -3.92750000      -1.27880000       0.20990000
