13
Properties=species:S:1:pos:R:3 gdb_24838=T pbc="F F F"
N       -0.14300000       1.40830000       0.08310000
C       -0.03950000       0.15030000      -0.01830000
N        1.18700000      -0.52760000      -0.14300000
C        1.41400000      -1.51520000      -0.88890000
O        0.62140000      -2.15130000      -1.81110000
C       -0.73300000      -1.96550000      -1.93210000
N       -1.56320000      -1.40610000      -1.16970000
C       -1.26250000      -0.72930000       0.02650000
N       -1.96620000      -0.80630000       1.07650000
H        0.78670000       1.83490000       0.04030000
H        2.39420000      -1.98410000      -0.90990000
H       -1.05780000      -2.45560000      -2.84610000
H       -2.75420000      -1.44010000       0.91730000
