19
Properties=species:S:1:pos:R:3 gdb_64405=T pbc="F F F"
C       -0.34910000       1.49410000      -0.00420000
C        0.01990000       0.01260000      -0.00820000
O       -1.13640000      -0.78700000      -0.25420000
C        1.04290000      -0.38100000      -1.10400000
O        2.05840000      -1.16770000      -0.49060000
C        1.54330000      -1.66670000       0.73380000
C        0.71950000      -0.50090000       1.29990000
C        1.62160000       0.52770000       1.94410000
O        1.33960000       1.14830000       2.93890000
H        0.53400000       2.13170000       0.09680000
H       -0.85770000       1.75010000      -0.93830000
H       -1.01810000       1.72960000       0.83110000
H       -1.81690000      -0.52870000       0.37740000
H        0.51540000      -0.94820000      -1.88060000
H        1.52330000       0.48910000      -1.56180000
H        0.89680000      -2.54240000       0.57870000
H        2.39360000      -1.95950000       1.35690000
H       -0.03640000      -0.79770000       2.03100000
H        2.59650000       0.67810000       1.42770000
