22
Properties=species:S:1:pos:R:3 gdb_63378=T pbc="F F F"
C       -0.74900000       1.42800000      -0.46610000
C        0.01700000       0.12650000      -0.24700000
C       -0.91400000      -1.08330000      -0.36760000
C        1.31760000      -0.03670000      -1.09620000
C        2.12960000      -0.39790000       0.19730000
C        3.44110000       0.36390000       0.41640000
C        0.89530000       0.07500000       1.04350000
C        2.36190000      -1.83500000       0.31820000
N        2.54950000      -2.97270000       0.41460000
H       -0.09190000       2.30050000      -0.38200000
H       -1.20910000       1.45080000      -1.46080000
H       -1.55120000       1.54130000       0.27220000
H       -1.37570000      -1.12020000      -1.36080000
H       -0.37840000      -2.02480000      -0.21270000
H       -1.71830000      -1.02960000       0.37490000
H        1.30010000      -0.79230000      -1.88430000
H        1.67060000       0.90740000      -1.52010000
H        3.26300000       1.43940000       0.32510000
H        3.85000000       0.16520000       1.41160000
H        4.19260000       0.07460000      -0.32430000
H        1.08000000       1.06360000       1.47260000
H        0.56550000      -0.59800000       1.83760000
