19
Properties=species:S:1:pos:R:3 gdb_133854=T pbc="F F F"
C        1.16610000      -0.24550000      -1.21150000
C        2.63220000      -0.37030000      -0.87060000
C        3.14610000      -1.64930000      -0.10590000
C        4.13970000      -0.80890000       0.68220000
C        5.64550000      -0.79700000       0.52550000
C        5.85500000       0.40570000      -0.36560000
C        4.46160000       0.66680000      -0.86110000
C        3.43210000       0.50470000       0.19710000
C        3.76020000       0.02050000      -1.83160000
H        0.93250000       0.75970000      -1.57710000
H        0.53260000      -0.44310000      -0.33960000
H        0.88480000      -0.95890000      -1.99570000
H        3.50450000      -2.49400000      -0.70180000
H        2.36340000      -2.01340000       0.57560000
H        5.97390000      -1.75800000       0.11760000
H        6.18630000      -0.64210000       1.46920000
H        6.41760000       1.24880000       0.04460000
H        3.01550000       1.25050000       0.87290000
H        4.07510000      -0.43520000      -2.76740000
