16
Properties=species:S:1:pos:R:3 gdb_84266=T pbc="F F F"
C        0.22990000       1.41040000      -0.04600000
N       -0.01800000      -0.01470000      -0.02600000
C       -0.11570000      -0.84870000      -1.14860000
C       -0.56190000      -2.06550000      -0.79960000
C        0.05950000      -3.44360000      -0.84610000
O        0.37340000      -3.28900000       0.57730000
C       -0.54760000      -2.15990000       0.69930000
C       -0.09360000      -0.75570000       1.16190000
O        0.02660000      -0.30370000       2.27430000
H        1.13680000       1.64700000      -0.61390000
H       -0.61360000       1.95290000      -0.48650000
H        0.36200000       1.73010000       0.98910000
H        0.28380000      -0.50250000      -2.09390000
H       -0.62910000      -4.28370000      -0.99680000
H        0.95530000      -3.57860000      -1.45960000
H       -1.44410000      -2.45100000       1.25850000
