21
Properties=species:S:1:pos:R:3 gdb_110981=T pbc="F F F"
C        0.26360000       1.11310000       0.68130000
O        0.01410000      -0.22430000       1.05460000
C       -1.24410000      -0.69340000       0.64930000
C       -1.43270000      -1.30690000      -0.77710000
C       -0.48920000      -2.46190000      -0.33180000
C       -1.47080000      -2.21240000       0.86540000
O       -1.56580000      -2.89010000       2.06450000
C       -2.61620000      -2.14600000      -0.18140000
C       -3.98270000      -1.55350000       0.13650000
H        1.23590000       1.39130000       1.09520000
H        0.29380000       1.23660000      -0.41110000
H       -0.50150000       1.79500000       1.08400000
H       -2.02670000      -0.01020000       0.99730000
H       -1.42300000      -0.78520000      -1.73150000
H       -0.60810000      -3.41250000      -0.85710000
H        0.55560000      -2.20090000      -0.17090000
H       -0.77970000      -2.68560000       2.58350000
H       -2.74280000      -3.09790000      -0.70760000
H       -3.94370000      -0.58070000       0.63170000
H       -4.56520000      -1.43180000      -0.78310000
H       -4.53970000      -2.23230000       0.79100000
