18
Properties=species:S:1:pos:R:3 gdb_27155=T pbc="F F F"
C        0.22440000       1.53500000       0.18740000
C        0.07570000       0.06080000       0.01320000
C       -0.11260000      -0.67260000      -1.11780000
O       -0.18830000      -1.99590000      -0.74570000
C       -0.03950000      -1.97930000       0.59980000
N        0.11940000      -0.80650000       1.10880000
C       -0.24090000      -0.35800000      -2.54270000
C        0.32010000      -1.28690000      -3.60310000
C       -1.16760000      -1.15650000      -3.44040000
H        1.18630000       1.77900000       0.65090000
H        0.16570000       2.05910000      -0.77000000
H       -0.55880000       1.93250000       0.84190000
H       -0.06850000      -2.93390000       1.10140000
H       -0.17030000       0.70430000      -2.74770000
H        0.79180000      -0.83480000      -4.46830000
H        0.78630000      -2.20210000      -3.25740000
H       -1.69900000      -1.98430000      -2.98560000
H       -1.72900000      -0.61390000      -4.19260000
