16
Properties=species:S:1:pos:R:3 gdb_71570=T pbc="F F F"
O       -0.10380000       1.41930000      -0.10350000
C       -0.00450000       0.03940000      -0.09700000
C        0.47470000      -0.81960000      -1.28480000
C       -0.30230000      -1.96140000      -0.53320000
C       -1.25150000      -0.85460000       0.08440000
N       -1.11740000      -0.95010000       1.56540000
C        0.35130000      -0.72170000       1.27300000
C        0.63570000      -2.09880000       0.66600000
O        1.39400000      -2.96820000       0.98600000
H        0.78120000       1.79760000      -0.04990000
H       -0.03180000      -0.51870000      -2.20570000
H        1.54250000      -0.96920000      -1.46860000
H       -0.66000000      -2.85090000      -1.04220000
H       -2.22590000      -0.68500000      -0.37110000
H       -1.49300000      -0.08720000       1.95890000
H        0.99630000      -0.32970000       2.05670000
