19
Properties=species:S:1:pos:R:3 gdb_112358=T pbc="F F F"
C       -0.01650000       1.60150000       0.06570000
C       -0.05320000       0.07480000      -0.02470000
C        0.75310000      -0.50820000      -1.21310000
C        0.80050000      -2.04720000      -1.18570000
C       -0.36550000      -2.51780000      -2.06060000
O       -0.93090000      -3.57550000      -1.97170000
C       -0.68750000      -1.40550000      -3.05490000
C        0.04520000      -0.16710000      -2.53600000
O        0.05410000       0.91200000      -3.07100000
H        1.00820000       1.95840000       0.21510000
H       -0.39640000       2.06690000      -0.84690000
H       -0.61950000       1.95110000       0.90920000
H        0.35450000      -0.36260000       0.89460000
H       -1.09330000      -0.27480000      -0.08610000
H        1.74790000      -0.05280000      -1.21620000
H        1.72340000      -2.41930000      -1.65020000
H        0.73900000      -2.48870000      -0.18830000
H       -0.30570000      -1.66860000      -4.04920000
H       -1.76270000      -1.24090000      -3.16890000
