19
Properties=species:S:1:pos:R:3 gdb_53552=T pbc="F F F"
C        0.54500000       0.87930000       1.23500000
C        0.14400000      -0.21170000       0.35770000
C       -0.17860000      -1.10890000      -0.37750000
C       -0.57320000      -2.20480000      -1.25520000
C       -1.66570000      -3.06960000      -0.68110000
C       -2.82330000      -2.65350000       0.16720000
C       -1.89630000      -3.76060000       0.64360000
C       -2.14540000      -5.00360000      -0.19980000
O       -1.99830000      -4.24580000      -1.43360000
H        1.59830000       1.14140000       1.08540000
H       -0.04970000       1.78070000       1.05000000
H        0.41910000       0.61020000       2.28960000
H       -0.91910000      -1.80970000      -2.22130000
H        0.29160000      -2.84230000      -1.48080000
H       -2.69740000      -1.71210000       0.69100000
H       -3.83540000      -2.88180000      -0.15720000
H       -1.34300000      -3.71150000       1.57120000
H       -1.35690000      -5.76050000      -0.11960000
H       -3.12850000      -5.48400000      -0.12430000
