13
Properties=species:S:1:pos:R:3 gdb_129788=T pbc="F F F"
N        0.08190000       1.40260000       0.14410000
C       -0.03970000       0.02700000       0.04520000
C       -1.14310000      -0.82610000       0.03670000
N       -2.51450000      -0.90880000       0.03300000
N       -2.82830000      -2.15840000      -0.00010000
N       -1.67930000      -2.92860000      -0.02440000
C       -0.58760000      -2.11880000       0.00130000
N        0.73630000      -2.16890000      -0.01750000
N        1.02820000      -0.81200000       0.01930000
H        0.79230000       1.81160000      -0.44900000
H       -0.80260000       1.87480000       0.01640000
H       -1.76710000      -3.92960000      -0.04020000
H        1.99690000      -0.54270000       0.06630000
