25
Properties=species:S:1:pos:R:3 gdb_102529=T pbc="F F F"
C       -0.07990000       1.43540000       0.45950000
C       -0.12330000      -0.09250000       0.33920000
C       -1.52300000      -0.67680000       0.05490000
C       -2.16090000      -0.11330000      -1.23850000
C       -1.44960000      -0.47550000      -2.54870000
C       -1.49400000      -2.23290000       0.05550000
C       -1.10470000      -2.83950000       1.41810000
C       -2.86130000      -2.77650000      -0.30890000
O       -3.11440000      -3.44330000      -1.27980000
H        0.91590000       1.76790000       0.76890000
H       -0.31000000       1.93340000      -0.48680000
H       -0.79600000       1.79500000       1.20720000
H        0.57490000      -0.41860000      -0.44210000
H        0.25530000      -0.51770000       1.27430000
H       -2.17700000      -0.36870000       0.88580000
H       -3.20030000      -0.45850000      -1.29880000
H       -2.22390000       0.97630000      -1.14740000
H       -1.94090000       0.01570000      -3.39420000
H       -0.40230000      -0.15650000      -2.54960000
H       -1.47700000      -1.55260000      -2.73650000
H       -0.79800000      -2.58870000      -0.71150000
H       -0.08630000      -2.56680000       1.70230000
H       -1.77910000      -2.49590000       2.21090000
H       -1.15420000      -3.93250000       1.38510000
H       -3.66040000      -2.51880000       0.42920000
