18
Properties=species:S:1:pos:R:3 gdb_13823=T pbc="F F F"
C       -0.00980000       1.49880000       0.02020000
C        0.11980000      -0.01460000       0.02260000
O        0.33270000      -0.62790000       1.05060000
C       -0.02270000      -0.71040000      -1.28500000
C        0.01140000      -2.04450000      -1.40830000
C       -0.20630000      -2.50020000      -2.82370000
C       -0.05980000      -1.19140000      -3.64300000
C       -0.27870000      -0.04160000      -2.62500000
H        0.77910000       1.94910000      -0.59350000
H       -0.96530000       1.80690000      -0.41930000
H        0.06570000       1.87270000       1.04160000
H        0.14480000      -2.71640000      -0.56840000
H        0.49920000      -3.27930000      -3.13370000
H       -1.20800000      -2.94290000      -2.92630000
H        0.95580000      -1.12990000      -4.04610000
H       -0.74650000      -1.14170000      -4.49130000
H       -1.30450000       0.35050000      -2.67150000
H        0.38180000       0.81050000      -2.81740000
