16
Properties=species:S:1:pos:R:3 gdb_34892=T pbc="F F F"
N       -0.13970000      -1.18710000      -0.14630000
C       -0.08650000      -0.03530000      -0.05790000
C        0.02360000       1.41460000       0.04820000
N       -0.29180000       2.01620000       1.40280000
C        0.73400000       1.51120000       2.34070000
C        1.11940000       2.60230000       1.42570000
C        1.43620000       2.04210000       0.06190000
C        2.69570000       1.56440000      -0.54390000
N        2.03560000       2.80280000      -1.01340000
H       -0.62670000       1.88580000      -0.69480000
H        0.50440000       1.77040000       3.36900000
H        1.13720000       0.51120000       2.20060000
H        1.30770000       3.62350000       1.73650000
H        3.64000000       1.71660000      -0.02930000
H        2.64860000       0.67450000      -1.16650000
H        1.55140000       2.64480000      -1.89410000
