16
Properties=species:S:1:pos:R:3 gdb_25637=T pbc="F F F"
C        0.06940000       1.45490000       0.01810000
C        0.02830000       0.00030000      -0.00040000
C       -0.02830000      -1.20770000      -0.01930000
C       -0.04310000      -2.61900000      -0.03320000
C        1.08730000      -3.40080000       0.14390000
O        2.37470000      -3.06090000       0.35560000
N        0.74070000      -4.71090000       0.07710000
C       -0.62740000      -4.81030000      -0.14580000
C       -1.13230000      -3.54340000      -0.21750000
H        0.71930000       1.85480000      -0.76940000
H       -0.93090000       1.87320000      -0.14110000
H        0.43530000       1.84060000       0.97720000
H        2.40810000      -2.09530000       0.36910000
H        1.38830000      -5.47300000       0.17610000
H       -1.10080000      -5.77370000      -0.23040000
H       -2.16300000      -3.27300000      -0.38260000
