16
Properties=species:S:1:pos:R:3 gdb_34563=T pbc="F F F"
N        0.08140000      -1.12830000       0.08170000
C       -0.00650000       0.02610000       0.02430000
C       -0.06000000       1.43550000      -0.04910000
C       -1.12500000       2.24980000      -0.02380000
C       -0.54810000       3.65660000       0.02340000
C        0.00560000       3.86300000       1.47380000
C        1.24920000       2.92780000       1.44300000
C        1.15920000       2.37460000      -0.01430000
O        0.66240000       3.50550000      -0.72680000
H       -2.16820000       1.98020000       0.06230000
H       -1.15840000       4.46230000      -0.38000000
H        0.29420000       4.90710000       1.61110000
H       -0.72210000       3.60090000       2.24420000
H        2.17470000       3.49360000       1.56500000
H        1.22560000       2.13730000       2.19540000
H        2.08090000       2.00120000      -0.45520000
