21
Properties=species:S:1:pos:R:3 gdb_112628=T pbc="F F F"
O        0.20230000       0.96300000      -0.63170000
C       -0.01810000      -0.37270000      -0.20410000
C       -1.48050000      -0.49950000       0.18230000
C       -2.49210000      -0.42200000      -0.99910000
C       -2.78410000      -1.94140000      -0.83960000
O       -4.14520000      -2.34100000      -0.74480000
C       -2.21770000      -2.82220000      -1.94810000
O       -2.32590000      -4.19230000      -1.62200000
C       -1.95970000      -1.95120000       0.48140000
H        1.11910000       1.04420000      -0.91030000
H        0.22890000      -1.09020000      -1.00390000
H        0.61270000      -0.62690000       0.66370000
H       -1.68030000       0.21730000       0.98280000
H       -3.37300000       0.18630000      -0.77710000
H       -2.08720000      -0.09720000      -1.96200000
H       -4.52300000      -1.95890000       0.05310000
H       -2.74800000      -2.58160000      -2.88440000
H       -1.15550000      -2.60990000      -2.10200000
H       -3.23930000      -4.31340000      -1.33490000
H       -1.19600000      -2.73050000       0.55430000
H       -2.59490000      -2.01570000       1.37040000
