14
Properties=species:S:1:pos:R:3 gdb_48636=T pbc="F F F"
O       -0.10770000       0.00910000      -0.19130000
C        0.01250000       1.13840000       0.21310000
C        1.27540000       1.91680000       0.09210000
N        1.50720000       3.14130000       0.93410000
C        2.59590000       3.48450000      -0.04230000
C        3.49090000       2.27400000       0.08780000
C        2.62460000       1.24970000       0.15590000
C        1.61130000       2.92980000      -1.16600000
O        1.17680000       3.22030000      -2.22180000
H       -0.83600000       1.68690000       0.67960000
H        0.72600000       3.79190000       0.80510000
H        3.00470000       4.49210000      -0.04000000
H        4.56880000       2.27180000       0.03360000
H        2.78130000       0.18240000       0.17170000
