21
Properties=species:S:1:pos:R:3 gdb_113091=T pbc="F F F"
C        0.40650000       1.51150000       0.13630000
C        0.28640000      -0.01110000       0.04020000
C        0.67200000      -0.55390000      -1.34140000
O        2.03940000      -0.23790000      -1.64920000
C        2.78390000      -1.42650000      -1.95800000
C        3.98310000      -1.49990000      -1.00730000
O        4.77220000      -0.33250000      -1.09990000
C        1.78850000      -2.54240000      -1.81530000
C        0.60490000      -2.05270000      -1.46640000
H        1.42870000       1.83290000      -0.08120000
H       -0.25840000       2.00630000      -0.58040000
H        0.14290000       1.86600000       1.13710000
H        0.92350000      -0.49370000       0.79090000
H       -0.74540000      -0.32070000       0.25200000
H        0.02990000      -0.06610000      -2.09550000
H        3.16950000      -1.33830000      -2.98650000
H        3.61270000      -1.66310000       0.01780000
H        4.62560000      -2.34640000      -1.27500000
H        4.15520000       0.40460000      -1.01430000
H        2.04040000      -3.58260000      -1.97950000
H       -0.30440000      -2.61320000      -1.28820000
