19
Properties=species:S:1:pos:R:3 gdb_55021=T pbc="F F F"
C        0.39490000       1.30330000      -0.45050000
C        0.08730000       0.10720000       0.43120000
O        0.91000000      -0.37690000       1.17260000
C       -1.31840000      -0.42330000       0.31100000
N       -1.62690000      -1.70040000       0.96430000
C       -2.28650000      -0.50820000       1.47010000
C       -2.00140000      -0.09400000       2.88290000
C       -2.08620000      -1.12900000       3.95110000
N       -0.79960000      -0.52730000       3.59240000
H        1.39630000       1.67500000      -0.23260000
H        0.33210000       1.01940000      -1.50780000
H       -0.34230000       2.09830000      -0.29020000
H       -1.78660000      -0.21580000      -0.65060000
H       -2.24560000      -2.26220000       0.38790000
H       -3.32510000      -0.34160000       1.17940000
H       -2.31960000       0.92200000       3.11250000
H       -2.46690000      -0.86760000       4.93480000
H       -2.28620000      -2.14870000       3.63190000
H       -0.26300000      -1.15050000       2.99150000
