21
Properties=species:S:1:pos:R:3 gdb_92349=T pbc="F F F"
C        0.16120000       1.57460000       0.00730000
C        0.01970000       0.06720000       0.00190000
O        0.59930000      -0.42550000      -1.19040000
C        0.80680000      -1.84240000      -1.18440000
C       -0.46480000      -2.62840000      -0.78230000
C       -0.43400000      -2.63690000       0.77540000
C        0.85270000      -1.85500000       1.13530000
C        1.78140000      -2.17120000      -0.04510000
O        0.64600000      -0.43830000       1.16490000
H        1.22010000       1.84300000      -0.01160000
H       -0.33100000       1.99710000      -0.87190000
H       -0.29690000       1.98770000       0.90900000
H       -1.04760000      -0.21500000       0.02150000
H        1.16560000      -2.08720000      -2.18570000
H       -1.36380000      -2.16490000      -1.19600000
H       -0.40620000      -3.64290000      -1.18700000
H       -1.31580000      -2.17800000       1.22940000
H       -0.35960000      -3.65570000       1.16640000
H        1.25090000      -2.11050000       2.11900000
H        2.06880000      -3.22870000      -0.05660000
H        2.67540000      -1.54560000      -0.05940000
