13
Properties=species:S:1:pos:R:3 gdb_130036=T pbc="F F F"
N        0.21560000       1.23300000       0.16840000
C        0.08270000      -0.12790000       0.04320000
N       -1.04450000      -0.74440000       0.02070000
C       -0.80790000      -2.17710000      -0.02480000
C        0.72000000      -2.41130000      -0.05800000
C        1.24150000      -1.02800000      -0.00370000
N        2.49710000      -0.70770000       0.03550000
N        3.60700000      -0.47850000       0.06870000
O        1.31870000      -3.45480000      -0.10800000
H        1.01520000       1.65920000      -0.27500000
H       -0.64870000       1.73460000       0.01710000
H       -1.23090000      -2.68720000       0.85000000
H       -1.26790000      -2.63250000      -0.91040000
