21
Properties=species:S:1:pos:R:3 gdb_119116=T pbc="F F F"
C       -0.37410000       1.79350000       0.12050000
C       -0.15670000       0.29250000      -0.08490000
C       -1.41090000      -0.53350000       0.23520000
C       -1.22920000      -2.02310000       0.02070000
C       -2.38090000      -2.83830000      -0.46880000
N       -1.23020000      -2.58730000      -1.34700000
C       -0.25890000      -2.68910000       0.98240000
N        0.34010000      -3.80570000       0.49020000
O       -0.08010000      -2.25610000       2.10730000
H        0.53350000       2.36140000      -0.10560000
H       -1.17400000       2.17380000      -0.52540000
H       -0.65450000       2.01180000       1.15660000
H        0.15480000       0.10330000      -1.12090000
H        0.66240000      -0.05190000       0.55560000
H       -1.68910000      -0.37510000       1.28210000
H       -2.25200000      -0.18680000      -0.38020000
H       -2.49130000      -3.86880000      -0.14480000
H       -3.31340000      -2.31580000      -0.66580000
H       -1.44790000      -1.85920000      -2.02270000
H        0.28090000      -3.98730000      -0.49980000
H        1.04350000      -4.25440000       1.05250000
