18
Properties=species:S:1:pos:R:3 gdb_34862=T pbc="F F F"
N       -0.09430000      -1.22900000      -0.12560000
C       -0.05980000      -0.07440000      -0.06590000
C       -0.00180000       1.37150000       0.02450000
C       -0.11820000       2.09070000       1.40040000
C        0.56310000       1.29760000       2.51870000
C        2.09170000       1.26730000       2.26140000
C        2.45000000       1.33230000       0.75430000
C        1.36440000       2.11800000       0.01410000
O        0.78780000       3.11550000       0.90320000
H       -0.68570000       1.82110000      -0.69810000
H       -1.09500000       2.49820000       1.66860000
H        0.35990000       1.76790000       3.48550000
H        0.13470000       0.28990000       2.55800000
H        2.52700000       2.14490000       2.74420000
H        2.54530000       0.39020000       2.72930000
H        3.41880000       1.82410000       0.62520000
H        2.53760000       0.33410000       0.31120000
H        1.68930000       2.54940000      -0.93490000
