16
Properties=species:S:1:pos:R:3 gdb_123816=T pbc="F F F"
C       -0.33870000       1.14110000      -0.12790000
C        1.12880000       1.06690000       0.25230000
C        0.35240000      -0.18140000       0.00200000
O        0.09160000      -0.96620000       1.15090000
C       -0.91300000      -1.84490000       1.04810000
N       -1.63140000      -2.00400000      -0.04080000
O       -2.54270000      -3.01710000       0.27980000
C       -2.32790000      -3.41280000       1.54220000
C       -1.30940000      -2.71940000       2.10280000
H       -1.03870000       1.40790000       0.65520000
H       -0.61450000       1.47710000      -1.12080000
H        1.88010000       1.35730000      -0.47310000
H        1.38330000       1.28260000       1.28370000
H        0.53590000      -0.77600000      -0.88670000
H       -2.97670000      -4.19540000       1.90490000
H       -0.89280000      -2.79850000       3.09180000
