17
Properties=species:S:1:pos:R:3 gdb_42893=T pbc="F F F"
O       -0.17540000       0.01650000      -0.10060000
C       -0.15040000       1.20490000       0.04300000
C       -1.17280000       2.29780000      -0.05370000
C       -0.95630000       3.26780000       1.09700000
C       -0.01070000       3.33450000      -0.04940000
C        1.03770000       2.22980000       0.10180000
C        2.18880000       2.18850000       1.12360000
C        3.06790000       1.88690000      -0.10550000
O        1.94410000       2.07150000      -0.99920000
H       -2.09760000       2.27960000      -0.61590000
H       -1.69950000       4.05610000       1.15360000
H       -0.62520000       2.90440000       2.06620000
H        0.10160000       4.19320000      -0.69710000
H        2.38820000       3.14540000       1.60980000
H        2.12560000       1.40010000       1.87490000
H        3.87470000       2.59520000      -0.32200000
H        3.45770000       0.86450000      -0.15610000
