15
Properties=species:S:1:pos:R:3 gdb_6364=T pbc="F F F"
N        0.34090000       1.37130000      -0.04170000
C       -0.01140000      -0.02250000       0.14020000
C       -1.50330000      -0.34430000      -0.07490000
O       -2.32170000       0.50650000      -0.31370000
N       -1.78180000      -1.70730000       0.02830000
C       -3.05570000      -2.31450000       0.05010000
N       -2.95740000      -3.69770000      -0.01150000
O       -4.09630000      -1.72180000       0.16790000
H        0.08570000       1.65270000      -0.98480000
H       -0.25560000       1.93550000       0.55840000
H        0.58730000      -0.64280000      -0.54040000
H        0.26150000      -0.33830000       1.15660000
H       -0.99390000      -2.31120000       0.21030000
H       -2.21640000      -4.10320000      -0.56340000
H       -3.85440000      -4.14470000      -0.13010000
