12
Properties=species:S:1:pos:R:3 gdb_21797=T pbc="F F F"
O       -0.39100000       0.69830000       0.89490000
C        0.07320000       1.04220000      -0.15790000
C        1.43040000       1.72940000      -0.30450000
C        1.37380000       2.90070000      -1.22790000
C        1.31920000       4.23920000      -0.99370000
O        1.25260000       4.88450000      -2.15380000
N        1.26000000       3.87950000      -3.17020000
N        1.32940000       2.76130000      -2.60220000
H       -0.45980000       0.87410000      -1.11900000
H        1.78300000       2.01420000       0.68900000
H        2.12600000       0.98540000      -0.71460000
H        1.32690000       4.83500000      -0.09550000
