19
Properties=species:S:1:pos:R:3 gdb_120943=T pbc="F F F"
C       -0.40690000       1.23760000      -0.51550000
O       -0.60860000      -0.15630000      -0.50270000
C       -0.93430000      -0.65610000       0.77760000
C       -1.08170000      -2.15750000       0.62870000
O       -1.54870000      -2.82190000       1.83570000
C       -2.57960000      -3.48580000       1.08930000
C       -3.56330000      -2.48300000       0.54790000
C       -2.25070000      -2.73750000      -0.17070000
O       -2.15800000      -3.19980000      -1.46420000
H       -0.16070000       1.52380000      -1.54090000
H       -1.30970000       1.78360000      -0.19960000
H        0.42190000       1.53440000       0.14570000
H       -0.14450000      -0.42140000       1.51070000
H       -1.87010000      -0.21010000       1.14990000
H       -0.13610000      -2.60050000       0.29310000
H       -2.78450000      -4.52550000       1.31160000
H       -4.41140000      -2.92410000       0.03260000
H       -3.77040000      -1.56830000       1.09640000
H       -2.28150000      -2.44780000      -2.05520000
