24
Properties=species:S:1:pos:R:3 gdb_101346=T pbc="F F F"
C       -0.29760000       1.70500000      -0.31020000
C       -0.04450000       0.29830000       0.22730000
N       -1.28350000      -0.47830000       0.18820000
C       -1.56970000      -1.26590000      -1.00820000
C       -1.24980000      -1.93510000       0.28490000
C        0.01280000      -2.76710000       0.47840000
C       -0.35600000      -4.24940000       0.62230000
O        0.89790000      -2.55740000      -0.61620000
C        2.24180000      -2.90000000      -0.36190000
H        0.60920000       2.31470000      -0.24350000
H       -0.60430000       1.66990000      -1.36090000
H       -1.09340000       2.19710000       0.25620000
H        0.77060000      -0.17860000      -0.33370000
H        0.27220000       0.35780000       1.27650000
H       -2.59350000      -1.22920000      -1.37300000
H       -0.80280000      -1.31860000      -1.77670000
H       -2.07820000      -2.32900000       0.87330000
H        0.51440000      -2.43530000       1.40470000
H       -0.88380000      -4.59430000      -0.27200000
H        0.53340000      -4.86970000       0.75990000
H       -1.00410000      -4.40310000       1.49050000
H        2.81580000      -2.62140000      -1.24910000
H        2.64280000      -2.35390000       0.50590000
H        2.37750000      -3.97640000      -0.18520000
