16
Properties=species:S:1:pos:R:3 gdb_4342=T pbc="F F F"
C        0.00110000       1.50850000       0.03760000
C        0.00370000      -0.00050000      -0.00040000
C       -0.06950000      -0.69170000      -1.21040000
C       -0.04530000      -2.08590000      -1.22700000
C        0.04970000      -2.81190000      -0.04750000
C        0.12090000      -2.12680000       1.16720000
O        0.21030000      -2.87300000       2.30560000
C        0.09690000      -0.73320000       1.18680000
H        0.99890000       1.90260000       0.26540000
H       -0.30740000       1.92930000      -0.92290000
H       -0.67770000       1.88970000       0.80770000
H       -0.14620000      -0.13870000      -2.14080000
H       -0.10430000      -2.61380000      -2.17340000
H        0.06700000      -3.89540000      -0.04310000
H        0.25150000      -2.28210000       3.06470000
H        0.15060000      -0.21010000       2.13980000
