20
Properties=species:S:1:pos:R:3 gdb_69428=T pbc="F F F"
C        0.05810000       1.50250000       0.23030000
C        0.13940000       0.00670000       0.04210000
C       -0.91400000      -0.89100000       0.64940000
C        0.50410000      -0.93940000       1.16840000
C        1.40420000      -2.04630000       0.61310000
C        1.17000000      -1.99080000      -0.92840000
C        0.80790000      -0.52110000      -1.22520000
C        2.80520000      -1.78360000       0.95590000
N        3.90950000      -1.57020000       1.22370000
H        1.05090000       1.96220000       0.16690000
H       -0.57220000       1.96400000      -0.53880000
H       -0.36920000       1.75980000       1.20450000
H       -1.64560000      -0.42050000       1.29770000
H       -1.30870000      -1.72940000       0.08430000
H        0.70760000      -0.57610000       2.16920000
H        1.14870000      -3.03430000       1.01300000
H        2.03960000      -2.33840000      -1.48850000
H        0.33910000      -2.65530000      -1.17810000
H        0.17500000      -0.42900000      -2.11450000
H        1.71680000       0.06330000      -1.41330000
