17
Properties=species:S:1:pos:R:3 gdb_79535=T pbc="F F F"
O        0.10320000       1.39800000       0.11360000
C        0.02110000      -0.00250000       0.03990000
C       -1.35520000      -0.57900000      -0.28780000
C       -1.54010000      -0.27300000      -1.82020000
C       -1.89430000      -1.75890000      -2.05300000
C       -1.06750000      -2.03850000      -0.77860000
O        0.33890000      -1.99210000      -1.12120000
C        0.62220000      -0.61630000      -1.23850000
O       -0.18370000      -0.02350000      -2.25940000
H       -0.03660000       1.72680000      -0.78380000
H        0.46690000      -0.41850000       0.94550000
H       -2.19140000      -0.40360000       0.38250000
H       -2.18430000       0.52450000      -2.19010000
H       -2.96090000      -1.94730000      -1.89650000
H       -1.55150000      -2.21730000      -2.98230000
H       -1.25290000      -2.91600000      -0.15950000
H        1.67400000      -0.46350000      -1.47180000
