19
Properties=species:S:1:pos:R:3 gdb_112086=T pbc="F F F"
C       -0.00190000       1.23240000       0.30360000
O        0.01710000      -0.14570000       0.01420000
C        0.62160000      -0.47680000      -1.23180000
C        2.12530000      -0.52000000      -1.14510000
C        2.88270000      -1.44080000      -1.73650000
C        2.33940000      -2.57750000      -2.55660000
C        0.85750000      -2.80020000      -2.35290000
O        0.42860000      -2.96910000      -1.00170000
C        0.02170000      -1.78750000      -1.69060000
H        1.00630000       1.65830000       0.41780000
H       -0.52780000       1.80480000      -0.47740000
H       -0.53540000       1.35420000       1.24950000
H        0.32460000       0.28460000      -1.97840000
H        2.59030000       0.27170000      -0.56470000
H        3.96390000      -1.39150000      -1.63390000
H        2.52710000      -2.40130000      -3.62610000
H        2.87630000      -3.50430000      -2.31320000
H        0.38030000      -3.47820000      -3.06140000
H       -1.04480000      -1.74350000      -1.91000000
