18
Properties=species:S:1:pos:R:3 gdb_104831=T pbc="F F F"
C       -1.53080000      -0.88130000       0.18940000
N       -0.30450000      -0.08610000       0.22800000
C        0.63410000      -0.40070000       1.28600000
C        0.11950000       0.17190000       2.61970000
O       -0.22710000       1.52390000       2.48940000
C        1.27840000      -1.81050000       1.41840000
O        2.60180000      -1.23010000       1.19170000
C        2.08050000       0.01800000       0.95620000
O        2.65290000       0.99050000       0.58820000
H       -2.12870000      -0.69480000       1.08610000
H       -2.12500000      -0.56960000      -0.67310000
H       -1.36030000      -1.96720000       0.11470000
H        0.15380000      -0.08420000      -0.67510000
H       -0.73380000      -0.44320000       2.95640000
H        0.89880000       0.08450000       3.38520000
H       -0.54030000       1.62330000       1.57800000
H        1.22610000      -2.29000000       2.39860000
H        1.02930000      -2.52120000       0.62690000
