14
Properties=species:S:1:pos:R:3 gdb_61331=T pbc="F F F"
O        0.07140000       1.51280000      -0.01630000
C        0.02040000       0.12140000       0.00780000
C        0.65460000      -0.48480000      -1.27480000
C       -0.07020000      -0.11200000      -2.47500000
C       -0.68380000       0.19250000      -3.46940000
C       -1.37620000       0.53240000      -4.59570000
N       -1.96580000       0.81750000      -5.55520000
C        0.73080000      -0.42320000       1.23660000
O        1.23790000       0.31370000       2.04440000
H        0.55080000       1.77670000       0.78560000
H       -1.02400000      -0.23360000       0.06230000
H        1.69150000      -0.13470000      -1.34740000
H        0.68120000      -1.57960000      -1.19240000
H        0.75180000      -1.52600000       1.35180000
