25
Properties=species:S:1:pos:R:3 gdb_63745=T pbc="F F F"
C       -0.89240000       1.43270000       0.06270000
C       -0.02240000       0.17910000       0.05220000
C       -0.88780000      -1.08140000      -0.01560000
C        1.13550000       0.16260000      -0.99790000
C        2.13250000      -0.26360000       0.10400000
C        2.72780000      -1.69980000       0.15710000
C        4.03010000      -1.10280000       0.75350000
C        3.57310000       0.28930000       0.24070000
C        1.06410000       0.09840000       1.17370000
H       -0.28160000       2.34070000       0.11030000
H       -1.51060000       1.49320000      -0.84120000
H       -1.56800000       1.43930000       0.92670000
H       -1.50700000      -1.08320000      -0.92040000
H       -0.27750000      -1.99030000      -0.02960000
H       -1.55880000      -1.14420000       0.84920000
H        1.02070000      -0.52040000      -1.84630000
H        1.35600000       1.16230000      -1.38810000
H        2.19190000      -2.44800000       0.74850000
H        2.88950000      -2.10260000      -0.84850000
H        4.03870000      -1.15200000       1.84590000
H        4.98090000      -1.49330000       0.38320000
H        4.00660000       0.52460000      -0.73740000
H        3.71640000       1.15130000       0.89930000
H        1.25440000       1.07390000       1.63400000
H        0.89240000      -0.63190000       1.97130000
