19
Properties=species:S:1:pos:R:3 gdb_7187=T pbc="F F F"
C        0.18640000       0.69010000       0.69170000
O       -0.45640000       0.25930000      -0.49760000
C       -1.53210000      -0.62790000      -0.30600000
C       -1.12800000      -2.10100000      -0.17880000
C       -0.17360000      -2.55330000      -1.27900000
O       -0.51880000      -2.27540000       1.11390000
C       -0.63700000      -3.48080000       1.69830000
N       -0.02420000      -3.72950000       2.77370000
H        0.90850000       1.45490000       0.39530000
H       -0.53590000       1.13670000       1.39150000
H        0.70580000      -0.12630000       1.20410000
H       -2.12760000      -0.34550000       0.57550000
H       -2.17020000      -0.53420000      -1.19310000
H       -2.05380000      -2.69570000      -0.21060000
H        0.10860000      -3.60110000      -1.14310000
H       -0.64890000      -2.44980000      -2.25960000
H        0.72800000      -1.93780000      -1.26840000
H       -1.30850000      -4.16380000       1.15750000
H       -0.24780000      -4.67080000       3.08970000
