17
Properties=species:S:1:pos:R:3 gdb_35428=T pbc="F F F"
C        0.46240000      -0.85780000       0.75420000
C        0.19760000       0.22950000       0.31610000
C       -0.16740000       1.52420000      -0.29440000
O       -1.08300000       2.23880000       0.51960000
C       -0.45990000       3.21370000       1.36260000
C        0.20820000       4.28660000       0.46100000
C        1.35400000       3.24520000       0.34530000
C        0.97050000       2.76850000       1.77310000
O        0.98520000       2.27480000      -0.64030000
H        0.70270000      -1.81300000       1.15230000
H       -0.69140000       1.32060000      -1.23500000
H       -1.20090000       3.48890000       2.11350000
H       -0.31230000       4.55860000      -0.45860000
H        0.50680000       5.17630000       1.02090000
H        2.37340000       3.55100000       0.10890000
H        1.38290000       3.44010000       2.52920000
H        1.14660000       1.73150000       2.05490000
