19
Properties=species:S:1:pos:R:3 gdb_51797=T pbc="F F F"
O       -0.14620000      -0.00830000      -0.15850000
C       -0.00530000       1.18540000      -0.07030000
C        1.33430000       1.89090000      -0.11630000
C        1.40860000       2.92620000      -1.24390000
O        0.37160000       3.88850000      -1.03880000
C        0.74020000       5.09950000      -1.69720000
C        2.25580000       5.15400000      -1.62520000
C        2.85850000       4.82380000      -0.28440000
C        2.69170000       3.74060000      -1.32060000
H       -0.87730000       1.86260000       0.05000000
H        1.48370000       2.41110000       0.83850000
H        2.12020000       1.14030000      -0.23840000
H        1.26210000       2.41330000      -2.21010000
H        0.40900000       5.09520000      -2.74770000
H        0.23020000       5.91690000      -1.17700000
H        2.79270000       5.78070000      -2.32700000
H        3.86690000       5.17070000      -0.08990000
H        2.20580000       4.81890000       0.58320000
H        3.56190000       3.29360000      -1.78590000
