17
Properties=species:S:1:pos:R:3 gdb_19105=T pbc="F F F"
C       -0.06340000       1.62330000       0.01270000
C        0.02820000       0.10670000       0.01740000
C        1.06920000      -0.62800000      -0.87460000
C        2.46800000      -0.25430000      -0.34020000
C        2.22670000      -0.26430000       1.13080000
C        0.73130000      -0.64210000       1.18520000
C        1.18330000      -1.76200000       0.19400000
N        2.67910000      -1.52030000       0.44110000
H        0.92080000       2.07450000       0.17730000
H       -0.44730000       1.99460000      -0.94370000
H       -0.73360000       1.98270000       0.80130000
H       -0.95780000      -0.34690000      -0.14750000
H        0.93230000      -0.78880000      -1.94210000
H        3.28680000       0.25570000      -0.83250000
H        2.84420000       0.23720000       1.86560000
H        0.26090000      -0.81690000       2.15090000
H        0.78600000      -2.77170000       0.12200000
