16
Properties=species:S:1:pos:R:3 gdb_31867=T pbc="F F F"
N       -0.01630000       1.39690000       0.09780000
C        0.00200000       0.01130000       0.02650000
C       -1.16810000      -0.75850000       0.03080000
N       -1.15610000      -2.08610000       0.01950000
C        0.03850000      -2.68640000       0.00210000
C        0.05870000      -4.19200000      -0.05710000
O        0.05700000      -4.57240000      -1.43060000
N        1.21660000      -2.05380000       0.00530000
C        1.19260000      -0.72640000       0.01670000
H        0.81160000       1.85900000      -0.24930000
H       -0.86060000       1.83630000      -0.23920000
H       -2.14380000      -0.27300000       0.04710000
H        0.96190000      -4.55080000       0.45490000
H       -0.82930000      -4.57510000       0.46390000
H        0.07060000      -5.53380000      -1.46530000
H        2.15490000      -0.21460000       0.02130000
