18
Properties=species:S:1:pos:R:3 gdb_103039=T pbc="F F F"
O        0.04520000       1.45310000      -0.04360000
C        0.04620000       0.05280000       0.14910000
C       -1.36850000      -0.54300000       0.02890000
C       -2.17700000       0.08260000       1.07910000
N       -2.73780000       0.63320000       1.92870000
C       -2.06320000      -0.68510000      -1.37830000
C       -1.10910000      -1.88010000      -1.67000000
C       -1.59550000      -2.08460000      -0.20450000
C       -3.01990000      -1.72880000      -0.72750000
H       -0.44410000       1.85540000       0.68370000
H        0.70670000      -0.35340000      -0.61750000
H        0.46550000      -0.22460000       1.12810000
H       -2.32360000       0.14120000      -2.03820000
H       -1.48450000      -2.60990000      -2.38990000
H       -0.05470000      -1.67450000      -1.84740000
H       -1.32050000      -2.87930000       0.48910000
H       -3.74370000      -1.36030000       0.00100000
H       -3.46840000      -2.45370000      -1.40930000
