16
Properties=species:S:1:pos:R:3 gdb_133117=T pbc="F F F"
C       -0.06760000       1.37350000       0.10480000
O        0.00180000      -0.03580000       0.00210000
C        0.62170000      -0.56060000      -1.08420000
C        1.20440000       0.16560000      -2.12240000
C        1.81510000      -0.49670000      -3.19040000
C        1.85180000      -1.88330000      -3.23570000
C        1.27160000      -2.62120000      -2.20160000
C        0.66930000      -1.96290000      -1.14830000
F        0.11170000      -2.66100000      -0.15490000
H        0.93160000       1.82590000       0.14760000
H       -0.62300000       1.81360000      -0.73340000
H       -0.59680000       1.58240000       1.03570000
H        1.18560000       1.24760000      -2.10450000
H        2.26200000       0.08780000      -3.98710000
H        2.32550000      -2.39730000      -4.06400000
H        1.27780000      -3.70520000      -2.19730000
