18
Properties=species:S:1:pos:R:3 gdb_125874=T pbc="F F F"
C       -0.14200000       1.49400000      -0.10840000
C        0.00460000      -0.00430000       0.01990000
C        1.33430000      -0.67540000      -0.19170000
C        0.73700000      -0.63720000       1.19760000
C        1.31510000       0.17170000       2.28540000
N        0.76230000       0.38240000       3.47210000
C        1.67520000       1.16690000       4.10570000
N        2.75620000       1.46160000       3.40350000
N        2.50590000       0.81370000       2.23850000
H        0.75450000       2.01870000       0.23580000
H       -0.31420000       1.77870000      -1.15180000
H       -0.98550000       1.85960000       0.48580000
H       -0.86400000      -0.56890000      -0.30730000
H        1.37780000      -1.63380000      -0.69660000
H        2.18100000      -0.03080000      -0.40910000
H        0.30080000      -1.55980000       1.56490000
H        1.54000000       1.53180000       5.11320000
H        3.19590000       0.82040000       1.50630000
