20
Properties=species:S:1:pos:R:3 gdb_92112=T pbc="F F F"
C       -0.02730000       1.46220000      -0.02520000
N       -0.01880000       0.01000000       0.01430000
C       -1.36920000      -0.58890000       0.00540000
C       -1.23320000      -1.78660000       0.93850000
O       -0.19690000      -2.65570000       0.38220000
C        0.75440000      -2.06070000       1.27410000
C        1.96650000      -2.85480000       1.62880000
C       -0.29350000      -1.32690000       2.07700000
C        0.64950000      -0.54710000       1.18050000
H        0.99950000       1.84100000      -0.04190000
H       -0.51830000       1.79810000      -0.94420000
H       -0.55440000       1.92840000       0.82940000
H       -2.13090000       0.10940000       0.39530000
H       -1.66060000      -0.89590000      -1.00450000
H       -2.15100000      -2.32960000       1.16530000
H        2.57250000      -3.04590000       0.73640000
H        2.58370000      -2.31010000       2.34950000
H        1.68780000      -3.81860000       2.06700000
H       -0.49520000      -1.22510000       3.13510000
H        1.45600000       0.04180000       1.60220000
