14
Properties=species:S:1:pos:R:3 gdb_31311=T pbc="F F F"
N        0.46090000       0.93510000      -0.73980000
C       -0.24180000       0.17680000       0.28710000
C        0.71450000      -0.44950000       1.25100000
C        2.07490000      -0.58260000       1.19240000
O        2.47910000      -1.24570000       2.33400000
C        1.33830000      -1.47050000       3.00410000
N        0.26750000      -1.02660000       2.42830000
C        3.08320000      -0.20790000       0.28120000
N        3.94800000       0.08730000      -0.43050000
H       -0.16120000       1.15300000      -1.50910000
H        0.80060000       1.81730000      -0.37120000
H       -0.98260000       0.74420000       0.87470000
H       -0.80480000      -0.62820000      -0.20290000
H        1.42340000      -1.99000000       3.94610000
