18
Properties=species:S:1:pos:R:3 gdb_37257=T pbc="F F F"
C       -0.00820000       1.57000000      -0.08430000
C        1.29330000       0.79960000      -0.02460000
C        2.02570000       0.68470000       1.27550000
C        1.31630000       0.66910000       2.60470000
C        1.99300000      -0.59030000       2.09610000
C        0.60200000      -1.29830000       2.02590000
C       -0.06950000      -0.06130000       2.52430000
N       -0.38870000      -0.59420000       1.21690000
C       -0.02140000       0.07040000      -0.00910000
H       -0.30570000       2.12880000       0.79690000
H       -0.29040000       2.02350000      -1.02770000
H        1.90680000       0.75970000      -0.91910000
H        2.98820000       1.18830000       1.31650000
H        1.60490000       1.29810000       3.43680000
H        2.88510000      -1.07570000       2.46850000
H        0.43540000      -2.34210000       2.26560000
H       -0.86470000       0.06890000       3.24970000
H       -0.34040000      -0.48380000      -0.88610000
