17
Properties=species:S:1:pos:R:3 gdb_12233=T pbc="F F F"
C        0.01730000       1.38950000       0.17530000
N       -0.03930000      -0.06100000       0.30320000
C       -1.10930000      -0.65780000       0.04900000
O       -2.34080000      -0.20400000      -0.37300000
C       -2.80700000      -1.58500000      -0.62400000
C       -3.06040000      -1.84300000      -2.08960000
C       -1.47880000      -2.12320000      -0.01730000
O       -0.67950000      -2.93190000      -0.84120000
H        0.91220000       1.66210000      -0.39330000
H       -0.86220000       1.82610000      -0.31190000
H        0.12180000       1.83620000       1.17050000
H       -3.69250000      -1.77560000      -0.01160000
H       -2.15160000      -1.68770000      -2.67470000
H       -3.38380000      -2.87850000      -2.23380000
H       -3.84590000      -1.17880000      -2.46090000
H       -1.61940000      -2.58460000       0.96860000
H        0.19690000      -2.53020000      -0.86030000
