12
Properties=species:S:1:pos:R:3 gdb_130008=T pbc="F F F"
N        0.09650000       1.32050000       0.14490000
C       -0.07150000      -0.02960000       0.04300000
N       -1.17040000      -0.71460000       0.02050000
C       -0.70460000      -2.03730000       0.00760000
C        0.64680000      -2.02130000       0.01190000
O        1.22860000      -3.19840000      -0.02220000
N        0.13300000      -4.13900000      -0.04720000
C       -0.98060000      -3.42470000      -0.03010000
O        1.12780000      -0.76130000       0.03540000
H        0.93800000       1.68710000      -0.27490000
H       -0.73830000       1.84470000      -0.07140000
H       -1.91770000      -3.96290000      -0.04570000
