20
Properties=species:S:1:pos:R:3 gdb_95180=T pbc="F F F"
C       -0.23060000       1.52380000       0.00490000
C        0.02320000       0.00940000      -0.03610000
N        0.67500000      -0.40830000      -1.28560000
C        2.08920000      -0.04030000      -1.37970000
C        2.95420000      -0.42070000      -0.16790000
C        3.13400000       0.55910000       0.94830000
C        2.23450000      -0.65770000       1.15130000
C        0.75260000      -0.49850000       1.22290000
O        0.12870000      -0.82600000       2.21080000
H        0.69230000       2.10940000      -0.02660000
H       -0.83910000       1.81400000      -0.85590000
H       -0.76390000       1.78530000       0.92270000
H       -0.95460000      -0.48220000      -0.00120000
H        0.59730000      -1.41760000      -1.36270000
H        2.49220000      -0.52140000      -2.27560000
H        2.15480000       1.03900000      -1.55810000
H        3.79060000      -1.08220000      -0.37260000
H        4.06420000       0.56350000       1.50540000
H        2.66760000       1.53340000       0.85640000
H        2.61220000      -1.41320000       1.83170000
