19
Properties=species:S:1:pos:R:3 gdb_72031=T pbc="F F F"
C        0.01660000       1.48080000       0.07690000
C        0.04080000      -0.01800000      -0.02700000
C        0.17950000      -0.78160000      -1.34230000
C        0.05290000      -2.19050000      -0.72030000
C        1.16010000      -2.18250000       0.35540000
C        0.66050000      -0.91580000       1.04610000
O        1.27220000      -0.34720000       2.15300000
C       -0.83740000      -0.93640000       0.81210000
O       -1.15820000      -2.09000000       0.05620000
H        0.93530000       1.92190000      -0.32600000
H       -0.82920000       1.90340000      -0.47710000
H       -0.06450000       1.79670000       1.12060000
H       -0.63110000      -0.56600000      -2.04480000
H        1.14200000      -0.62390000      -1.83840000
H       -0.00890000      -3.04730000      -1.38780000
H        1.11630000      -3.06550000       1.00100000
H        2.16470000      -2.08220000      -0.06420000
H        1.07540000      -0.89400000       2.92180000
H       -1.59260000      -0.60970000       1.51410000
