18
Properties=species:S:1:pos:R:3 gdb_81734=T pbc="F F F"
C       -0.28960000       1.51650000       0.06430000
C        0.06400000       0.04160000       0.01860000
C        1.16260000      -0.46500000      -0.97300000
O        1.92940000       0.47850000      -1.68590000
C        1.89730000      -1.02540000       0.24280000
C        2.13710000       0.06720000       1.21900000
N        0.79760000      -0.53080000       1.21010000
C        2.50300000      -2.31200000       0.31220000
C        3.01690000      -3.39980000       0.33310000
H        0.59240000       2.16050000       0.04300000
H       -0.91130000       1.78210000      -0.79780000
H       -0.86230000       1.73750000       0.97060000
H       -0.84700000      -0.55310000      -0.09380000
H        0.79320000      -1.26010000      -1.62950000
H        1.46790000       0.69310000      -2.50280000
H        2.70480000      -0.19890000       2.10440000
H        2.29990000       1.07610000       0.85350000
H        3.47010000      -4.35950000       0.36300000
