19
Properties=species:S:1:pos:R:3 gdb_118019=T pbc="F F F"
C       -0.60860000       1.20050000      -0.72510000
O       -0.71790000      -0.20850000      -0.68080000
C       -0.88640000      -0.71870000       0.63140000
C       -1.02900000      -2.24290000       0.59000000
N       -1.14160000      -2.70450000       1.96750000
C       -2.20820000      -2.67210000      -0.34100000
O       -1.98840000      -2.38350000      -1.70030000
C       -2.42290000      -4.12460000      -0.21060000
N       -2.57360000      -5.25970000      -0.05640000
H       -0.46910000       1.48390000      -1.77010000
H       -1.51520000       1.68660000      -0.33610000
H        0.25400000       1.54760000      -0.13930000
H       -0.02390000      -0.46210000       1.26130000
H       -1.78260000      -0.27270000       1.09800000
H       -0.11490000      -2.66550000       0.15820000
H       -2.03560000      -2.43010000       2.36730000
H       -1.10730000      -3.71840000       2.00340000
H       -3.12510000      -2.18120000       0.03670000
H       -1.59000000      -1.49880000      -1.71840000
