20
Properties=species:S:1:pos:R:3 gdb_57673=T pbc="F F F"
C       -0.02940000       1.64010000      -0.07480000
C        0.04170000       0.10830000       0.04970000
C        0.82240000      -0.29080000       1.31510000
C       -1.39230000      -0.49420000       0.05900000
C       -2.24700000      -0.03680000       1.22270000
O       -3.19670000       0.69600000       1.11630000
C        0.74790000      -0.48750000      -1.20440000
C        2.12040000      -0.01760000      -1.38160000
N        3.20540000       0.36050000      -1.50710000
H        0.97360000       2.07250000      -0.13140000
H       -0.58080000       1.94000000      -0.97220000
H       -0.53880000       2.08110000       0.78680000
H        0.38240000       0.15350000       2.21220000
H        0.83850000      -1.37820000       1.44950000
H        1.85820000       0.05530000       1.25270000
H       -1.91910000      -0.22300000      -0.86150000
H       -1.31780000      -1.58970000       0.10940000
H       -1.94500000      -0.43230000       2.21810000
H        0.76730000      -1.58160000      -1.13690000
H        0.17890000      -0.23460000      -2.10640000
