19
Properties=species:S:1:pos:R:3 gdb_66205=T pbc="F F F"
O       -0.07920000       1.40190000      -0.00840000
C        0.03170000      -0.02350000       0.03810000
C       -1.41080000      -0.55880000       0.05300000
C       -1.45450000      -2.09140000       0.07120000
C       -0.48590000      -2.69780000      -0.90840000
C        0.49800000      -2.01050000      -1.48570000
C        0.75960000      -0.55010000      -1.22280000
C        0.75430000      -0.42630000       1.25430000
C        1.36700000      -0.72090000       2.24620000
H        0.79870000       1.76900000       0.14300000
H       -1.93710000      -0.13560000       0.91250000
H       -1.89710000      -0.17650000      -0.85140000
H       -1.23100000      -2.46150000       1.08160000
H       -2.47390000      -2.43100000      -0.14980000
H       -0.60740000      -3.75470000      -1.13260000
H        1.16500000      -2.50420000      -2.18800000
H        0.41730000       0.06330000      -2.06700000
H        1.83730000      -0.36910000      -1.12670000
H        1.90230000      -0.98450000       3.12500000
