16
Properties=species:S:1:pos:R:3 gdb_124199=T pbc="F F F"
C        0.00730000       1.50810000       0.00460000
C        0.01350000       0.05370000       0.04040000
C        0.01460000      -1.14900000       0.06970000
C        0.00860000      -2.60800000       0.10470000
N       -1.32850000      -3.19060000       0.00050000
C       -2.20640000      -3.46950000       1.01010000
N       -3.32990000      -3.94100000       0.53590000
N       -3.20840000      -3.97350000      -0.84120000
C       -2.01730000      -3.52000000      -1.13300000
H        0.59210000       1.88690000      -0.84030000
H       -1.01380000       1.89050000      -0.09810000
H        0.43080000       1.92960000       0.92230000
H        0.61330000      -3.01600000      -0.71260000
H        0.45850000      -2.97350000       1.03420000
H       -1.97080000      -3.31400000       2.05170000
H       -1.60240000      -3.41240000      -2.12350000
