20
Properties=species:S:1:pos:R:3 gdb_75623=T pbc="F F F"
C       -0.09920000       1.57840000      -0.01540000
C        0.01750000       0.06150000       0.03050000
C        1.15970000      -0.56010000      -0.81670000
O        1.47490000      -0.57790000      -1.97950000
N        1.73860000      -1.11070000       0.30190000
C        2.91780000      -1.91550000       0.47060000
C        0.74940000      -0.58630000       1.22640000
C        1.02320000      -0.02590000       2.58570000
C        0.19370000      -1.29460000       2.41950000
H        0.85750000       2.05590000       0.21710000
H       -0.40380000       1.90120000      -1.01520000
H       -0.84480000       1.94330000       0.69890000
H       -0.94380000      -0.41660000      -0.18230000
H        3.35570000      -2.06480000      -0.51930000
H        3.65910000      -1.42180000       1.11120000
H        2.68170000      -2.89620000       0.90200000
H        2.02140000      -0.13110000       2.99850000
H        0.51700000       0.88900000       2.87640000
H       -0.87530000      -1.24140000       2.59860000
H        0.64880000      -2.23170000       2.72390000
