18
Properties=species:S:1:pos:R:3 gdb_57696=T pbc="F F F"
C        0.16040000       1.58840000       0.01780000
C        0.00190000       0.06130000      -0.01530000
O        0.62350000      -0.41640000       1.18470000
C       -1.48450000      -0.38280000      -0.05410000
C       -2.26460000       0.04950000       1.20290000
C       -3.59250000      -0.55510000       1.25710000
N       -4.63990000      -1.04260000       1.28600000
C        0.68060000      -0.49490000      -1.19440000
C        1.22600000      -0.98530000      -2.14670000
H        1.22000000       1.84720000      -0.02000000
H       -0.34700000       2.04920000      -0.83310000
H       -0.25510000       1.98940000       0.94570000
H        0.79920000      -1.35730000       1.07300000
H       -1.96200000       0.01310000      -0.95540000
H       -1.51320000      -1.47410000      -0.13580000
H       -1.69940000      -0.24240000       2.09370000
H       -2.38180000       1.13740000       1.23980000
H        1.71580000      -1.40780000      -2.98960000
