13
Properties=species:S:1:pos:R:3 gdb_130723=T pbc="F F F"
O       -0.08020000      -0.04190000      -0.34220000
C       -0.06710000       1.15150000      -0.13010000
N       -1.08470000       2.06900000      -0.03880000
N       -0.66420000       3.35410000       0.21640000
C        0.62490000       3.25780000       0.28240000
N        1.06110000       1.96830000       0.08350000
C        2.40120000       1.42930000       0.06320000
C        3.13200000       1.66850000       1.31320000
N        3.71740000       1.88040000       2.28550000
H       -2.06500000       1.86720000      -0.12870000
H        1.28610000       4.08640000       0.48210000
H        2.28540000       0.35210000      -0.10390000
H        2.98250000       1.83870000      -0.77100000
