16
Properties=species:S:1:pos:R:3 gdb_31691=T pbc="F F F"
O        0.25540000       1.02370000       0.82540000
C       -0.01610000       0.12790000      -0.24050000
C       -1.38780000      -0.47790000      -0.16140000
C       -2.17840000      -0.52620000       0.95060000
N       -3.36420000      -1.17370000       0.61400000
C       -4.42490000      -1.41040000       1.48010000
O       -5.44240000      -1.97040000       1.16760000
C       -3.31550000      -1.53620000      -0.72550000
C       -2.11810000      -1.11980000      -1.22540000
H       -0.39640000       1.73130000       0.77600000
H        0.12180000       0.61020000      -1.22160000
H        0.75350000      -0.65030000      -0.16780000
H       -2.00590000      -0.17170000       1.95340000
H       -4.21710000      -1.02040000       2.49280000
H       -4.15320000      -2.04720000      -1.16850000
H       -1.77990000      -1.24860000      -2.24310000
