14
Properties=species:S:1:pos:R:3 gdb_20670=T pbc="F F F"
C       -0.02430000       1.52250000       0.01550000
C       -0.00280000       0.02630000      -0.02080000
C       -0.04500000      -0.69710000      -1.17020000
N       -0.02330000      -2.05910000      -1.15860000
N        0.03990000      -2.80890000      -0.05030000
C        0.08230000      -2.16450000       1.07810000
C        0.06740000      -0.70380000       1.24350000
O        0.11030000      -0.16320000       2.34490000
H        0.86880000       1.90340000       0.52230000
H       -0.07740000       1.95650000      -0.98660000
H       -0.87810000       1.87630000       0.60310000
H       -0.09790000      -0.24740000      -2.15650000
H       -0.05490000      -2.58750000      -2.01480000
H        0.13370000      -2.77510000       1.97450000
