19
Properties=species:S:1:pos:R:3 gdb_77994=T pbc="F F F"
C       -0.06000000       1.57210000      -0.01010000
C       -0.00150000       0.04920000      -0.01720000
C        1.08660000      -0.55280000      -0.96350000
C        1.82190000      -1.12520000       0.27030000
C        3.24580000      -1.18720000       0.41680000
N        4.39950000      -1.21720000       0.49830000
C        0.75470000      -0.54610000       1.19270000
N        0.98670000      -1.96230000       1.10920000
C        0.03080000      -2.91270000       0.55740000
H        0.93390000       2.00540000       0.14770000
H       -0.44660000       1.95420000      -0.96020000
H       -0.71380000       1.93560000       0.78990000
H       -1.00680000      -0.36200000      -0.15330000
H        0.77170000      -1.28570000      -1.71080000
H        1.67160000       0.22520000      -1.45760000
H        0.88890000      -0.05670000       2.15260000
H       -0.52690000      -2.56110000      -0.32040000
H        0.56960000      -3.82320000       0.28180000
H       -0.68790000      -3.16650000       1.34180000
