14
Properties=species:S:1:pos:R:3 gdb_77855=T pbc="F F F"
O        0.12010000       1.50190000      -0.00890000
C        0.00720000       0.11210000      -0.02130000
C       -1.35760000      -0.59340000      -0.01330000
C       -2.13000000      -0.39690000      -1.26090000
C       -2.11420000       0.81520000      -2.04610000
N       -2.16970000       1.76710000      -2.69910000
N       -1.00020000      -1.37830000      -1.27620000
C        0.20960000      -0.56440000      -1.38360000
N        1.03240000      -0.58190000      -2.32450000
H        0.12690000       1.81460000       0.90150000
H        0.66000000      -0.36870000       0.72210000
H       -1.80310000      -1.09560000       0.83800000
H       -3.08680000      -0.91000000      -1.30200000
H        1.78900000       0.08410000      -2.15600000
