16
Properties=species:S:1:pos:R:3 gdb_25032=T pbc="F F F"
O        0.03170000       0.02460000       0.01130000
C        0.03860000       1.23950000      -0.00580000
N       -0.98470000       2.11900000       0.30520000
C       -0.58230000       3.45390000       0.15250000
C        0.70640000       3.42920000      -0.25680000
N        1.08980000       2.09240000      -0.34110000
N        1.59400000       4.43370000      -0.64620000
C        1.43370000       5.75210000      -0.04620000
C        2.59430000       4.90100000       0.33100000
H       -1.89520000       1.79570000       0.57720000
H       -1.24870000       4.28130000       0.31540000
H        1.97070000       1.75550000      -0.68720000
H        1.56000000       6.58820000      -0.72630000
H        0.65430000       5.87480000       0.70190000
H        2.57750000       4.44940000       1.31940000
H        3.57860000       5.09880000      -0.08050000
