18
Properties=species:S:1:pos:R:3 gdb_121428=T pbc="F F F"
C       -0.05780000       1.45320000       0.27910000
C        0.16750000       0.01530000      -0.09180000
O        0.27680000      -0.73580000       1.06750000
C       -0.04390000      -2.06820000       1.04030000
O        0.19170000      -2.77520000       1.96890000
N        0.27840000      -0.55230000      -1.21050000
C        0.18070000       0.15450000      -2.47590000
C        1.20260000      -0.44830000      -3.44560000
O        0.99960000      -1.83250000      -3.61900000
H        0.66490000       1.74790000       1.04460000
H        0.02790000       2.12050000      -0.57710000
H       -1.05530000       1.56600000       0.71640000
H       -0.54220000      -2.36140000       0.10700000
H       -0.82370000      -0.01420000      -2.88490000
H        0.33590000       1.23920000      -2.39650000
H        1.09640000       0.02070000      -4.42940000
H        2.21870000      -0.22900000      -3.07800000
H        0.93780000      -2.19960000      -2.72840000
