18
Properties=species:S:1:pos:R:3 gdb_120119=T pbc="F F F"
C       -0.30520000       1.42040000      -0.09320000
C       -0.44590000      -0.02500000       0.34710000
O       -1.25100000      -0.70410000      -0.61450000
C       -1.44290000      -2.03860000      -0.32860000
C       -2.36020000      -2.51270000       0.75210000
O       -3.43240000      -1.56090000       0.94040000
C       -3.86870000      -1.78460000      -0.36870000
N       -4.89400000      -1.38160000      -0.95940000
C       -2.74590000      -2.71240000      -0.71380000
H        0.30280000       1.97770000       0.62550000
H        0.17380000       1.47990000      -1.07450000
H       -1.28780000       1.89510000      -0.16110000
H        0.54080000      -0.51010000       0.41810000
H       -0.92190000      -0.09220000       1.33570000
H       -0.56960000      -2.68090000      -0.47510000
H       -2.16400000      -3.20820000       1.55720000
H       -5.45220000      -0.77150000      -0.36020000
H       -2.80840000      -3.58580000      -1.34590000
