20
Properties=species:S:1:pos:R:3 gdb_105420=T pbc="F F F"
O       -0.22620000       1.62330000      -0.42540000
C       -0.02040000       0.26010000      -0.12990000
C       -1.34100000      -0.49510000       0.01370000
C       -2.14600000      -0.59010000      -1.29830000
C       -1.59570000      -2.03190000      -1.48570000
C       -1.19620000      -2.04190000       0.01720000
O       -2.09940000       0.12870000       1.06520000
C       -1.77490000      -0.17680000       2.33840000
N       -2.27410000       0.48620000       3.29040000
H       -0.85500000       1.95750000       0.22600000
H        0.56220000      -0.16120000      -0.95590000
H        0.57140000       0.12550000       0.79210000
H       -3.21750000      -0.58380000      -1.08770000
H       -1.92060000       0.16110000      -2.05680000
H       -2.30680000      -2.79430000      -1.80660000
H       -0.72780000      -2.06890000      -2.14830000
H       -0.22170000      -2.45680000       0.29000000
H       -1.96750000      -2.50800000       0.63570000
H       -1.08770000      -1.02720000       2.42920000
H       -1.95520000       0.10740000       4.18010000
