25
Properties=species:S:1:pos:R:3 gdb_111920=T pbc="F F F"
C       -0.16070000       1.64890000      -0.03690000
C       -0.09130000       0.11830000       0.00410000
C        0.74160000      -0.48310000      -1.13910000
C        2.23140000      -0.21720000      -1.07890000
C        2.95690000      -1.24630000      -1.52130000
C        4.44410000      -1.32230000      -1.66270000
C        2.05380000      -2.38820000      -1.94320000
C        0.68860000      -2.03990000      -1.29200000
C        0.52530000      -2.78960000       0.03760000
H        0.83060000       2.10300000       0.06260000
H       -0.59010000       1.99980000      -0.98220000
H       -0.78280000       2.03790000       0.77540000
H        0.31420000      -0.20260000       0.97080000
H       -1.11170000      -0.28290000      -0.05090000
H        0.35140000      -0.04220000      -2.07250000
H        2.64800000       0.73150000      -0.75550000
H        4.93120000      -0.40220000      -1.32780000
H        4.85660000      -2.15820000      -1.08280000
H        4.73450000      -1.49920000      -2.70670000
H        1.98360000      -2.43040000      -3.04040000
H        2.43020000      -3.36870000      -1.62390000
H       -0.14180000      -2.32380000      -1.94760000
H        1.34360000      -2.55590000       0.72760000
H       -0.41640000      -2.54540000       0.53700000
H        0.53590000      -3.87080000      -0.13630000
