17
Properties=species:S:1:pos:R:3 gdb_19768=T pbc="F F F"
C        0.02430000       1.53350000       0.10940000
C        1.51040000       1.82890000      -0.00720000
C        2.39880000       0.84170000       0.65910000
C        1.80820000      -0.22210000       1.56630000
O        0.46490000      -0.56280000       1.23540000
C        0.03670000      -0.00080000      -0.00390000
C        1.10310000      -0.23640000      -1.08500000
N        2.17050000       0.74940000      -0.79630000
H       -0.42020000       1.85830000       1.05360000
H       -0.52960000       1.99630000      -0.71540000
H        1.85210000       2.84090000      -0.19960000
H        3.41120000       1.13790000       0.92650000
H        2.43460000      -1.12690000       1.51790000
H        1.82910000       0.12530000       2.60830000
H       -0.93660000      -0.44550000      -0.21790000
H        1.49740000      -1.25640000      -1.05960000
H        0.71250000      -0.04040000      -2.08920000
