21
Properties=species:S:1:pos:R:3 gdb_69596=T pbc="F F F"
C        0.02710000       1.49990000      -0.08190000
C       -0.02740000      -0.00040000       0.05360000
C       -1.30220000      -0.72910000      -0.37380000
C       -1.19760000      -2.14080000       0.24720000
C       -0.29020000      -1.95700000       1.46690000
C       -0.75780000      -2.25480000       2.84470000
N        0.26810000      -3.10050000       2.20060000
C        0.58600000      -0.77140000       1.17480000
N        1.24440000      -0.71520000      -0.14290000
H        0.98500000       1.88190000       0.27880000
H       -0.07970000       1.80090000      -1.13080000
H       -0.77910000       1.97660000       0.48700000
H       -2.16720000      -0.19400000       0.03570000
H       -1.42700000      -0.75330000      -1.46240000
H       -2.17200000      -2.56130000       0.50960000
H       -0.73450000      -2.84060000      -0.45950000
H       -0.39880000      -1.66700000       3.68590000
H       -1.76330000      -2.65030000       2.96740000
H       -0.15670000      -3.96460000       1.87040000
H        1.13430000      -0.31090000       1.99130000
H        1.12630000      -1.58840000      -0.65150000
