16
Properties=species:S:1:pos:R:3 gdb_42923=T pbc="F F F"
O       -0.27610000      -0.01110000       0.01250000
C       -0.18840000       1.17700000       0.05680000
C       -1.16750000       2.33820000      -0.08980000
O       -0.88310000       3.19010000       1.04380000
C       -0.02370000       3.28540000      -0.08420000
C        1.03230000       2.17420000       0.08590000
C        1.93200000       2.22350000       1.28800000
C        3.12580000       1.34580000       1.35900000
N        3.28690000       2.80120000       1.19670000
H       -2.15550000       2.39990000      -0.52900000
H        0.05510000       4.24030000      -0.58910000
H        1.60950000       2.00280000      -0.83290000
H        1.41820000       2.47350000       2.21180000
H        3.45130000       0.95140000       2.31690000
H        3.33000000       0.69690000       0.51100000
H        3.50860000       3.01460000       0.22640000
