18
Properties=species:S:1:pos:R:3 gdb_37592=T pbc="F F F"
C        0.00280000       1.55060000       0.09020000
C        1.48500000       1.83150000      -0.03010000
C        2.45380000       0.82530000       0.50060000
C        1.92800000      -0.52310000       1.03670000
C        1.96220000      -1.38290000      -0.24440000
C        1.15830000      -0.31800000      -1.00670000
C        0.01220000       0.02680000       0.01060000
O        0.52410000      -0.44020000       1.27640000
N        2.09850000       0.85390000      -0.95660000
H       -0.44960000       1.89080000       1.02450000
H       -0.52900000       2.01100000      -0.75110000
H        1.81990000       2.85850000      -0.15090000
H        3.46410000       1.13260000       0.75570000
H        2.42350000      -0.89500000       1.93270000
H        2.95620000      -1.52370000      -0.67350000
H        1.45470000      -2.34100000      -0.11260000
H        0.84110000      -0.53490000      -2.02560000
H       -0.95390000      -0.44320000      -0.18220000
