15
Properties=species:S:1:pos:R:3 gdb_67122=T pbc="F F F"
O       -0.24810000       1.48100000       0.29060000
C       -0.00120000       0.14860000       0.09530000
C       -0.94390000      -0.97200000      -0.03930000
C       -0.44460000      -1.29000000      -1.51090000
C        0.79950000      -0.56740000      -1.01970000
C        1.86140000      -1.24520000      -0.52900000
C        1.58650000      -1.46900000       0.94040000
O        2.24360000      -2.08940000       1.74030000
C        0.17630000      -0.94550000       1.11830000
H        0.54750000       1.89210000       0.64900000
H       -1.98220000      -1.02980000       0.27580000
H       -0.32060000      -2.32590000      -1.83600000
H       -1.09780000      -0.73940000      -2.19470000
H        2.40470000      -2.01550000      -1.06810000
H       -0.25210000      -0.85440000       2.11230000
