17
Properties=species:S:1:pos:R:3 gdb_84356=T pbc="F F F"
C       -0.23250000       1.60200000      -0.15950000
C        0.06520000       0.10860000      -0.10810000
O       -1.13940000      -0.66090000       0.03760000
C        0.83690000      -0.43670000      -1.28650000
C        1.86560000      -1.20670000      -0.92660000
C        1.95460000      -1.39570000       0.56620000
O        3.25430000      -1.23870000       1.09000000
C        1.00730000      -0.28830000       1.05080000
O        1.06400000       0.21810000       2.14270000
H        0.67490000       2.17910000      -0.35970000
H       -0.96360000       1.80910000      -0.94610000
H       -0.63480000       1.93930000       0.80160000
H       -1.62970000      -0.28750000       0.78040000
H        0.55130000      -0.20530000      -2.30620000
H        2.56150000      -1.68850000      -1.60320000
H        1.53740000      -2.37800000       0.85200000
H        3.14380000      -0.84640000       1.96690000
