21
Properties=species:S:1:pos:R:3 gdb_86388=T pbc="F F F"
C       -0.02340000       1.57470000      -0.02280000
C        0.03930000       0.04650000      -0.00410000
C        0.76680000      -0.58650000      -1.20890000
C        1.27570000      -1.96580000      -0.71900000
O        2.47750000      -2.38760000      -1.35100000
C        1.49280000      -1.78720000       0.76940000
C        2.26440000      -0.55520000       1.21070000
C        0.75700000      -0.55180000       1.20590000
O        0.06830000      -0.55760000       2.42180000
H        0.98170000       2.01070000      -0.04220000
H       -0.56490000       1.94120000      -0.90100000
H       -0.54140000       1.95760000       0.86380000
H       -0.98700000      -0.34270000       0.03840000
H        0.12550000      -0.66430000      -2.09230000
H        1.63640000       0.01610000      -1.49450000
H        0.49040000      -2.72470000      -0.86510000
H        2.28540000      -2.53670000      -2.28240000
H        1.52740000      -2.66240000       1.40690000
H        2.72850000      -0.62500000       2.18840000
H        2.82950000       0.01540000       0.48180000
H        0.18900000       0.30330000       2.83610000
