16
Properties=species:S:1:pos:R:3 gdb_71384=T pbc="F F F"
N       -0.02090000       1.34510000       0.16890000
C        0.05210000      -0.05910000      -0.01750000
C        0.81070000      -0.98260000      -0.96730000
N       -0.08240000      -2.10810000      -0.45960000
C       -1.07140000      -1.04670000       0.03740000
C       -0.19820000      -0.91630000       1.28110000
O       -0.42740000      -0.30550000       2.47420000
C        0.38670000      -2.23150000       0.95650000
N        0.95030000      -3.16490000       1.57510000
H        0.90200000       1.75880000       0.25480000
H       -0.51420000       1.81930000      -0.57990000
H        0.60620000      -0.78890000      -2.02520000
H        1.88120000      -1.15840000      -0.81210000
H       -2.13830000      -1.04490000      -0.13030000
H       -0.41890000       0.64880000       2.29430000
H        1.13630000      -3.94470000       0.94000000
