16
Properties=species:S:1:pos:R:3 gdb_123756=T pbc="F F F"
C       -0.03080000       1.17700000      -0.25010000
C        1.45580000       1.51320000      -0.02650000
C        1.48530000       0.19500000       0.79070000
O        0.09670000      -0.06780000       0.47500000
C        2.39880000      -0.88600000       0.33360000
C        3.22710000      -1.74170000       0.99290000
C        3.80780000      -2.51100000      -0.04940000
N        3.37060000      -2.15140000      -1.23110000
O        2.47490000      -1.11600000      -0.99100000
H       -0.74620000       1.85380000       0.23170000
H       -0.33610000       1.01140000      -1.28880000
H        2.07210000       1.49370000      -0.92480000
H        1.66610000       2.41670000       0.54620000
H        1.62660000       0.32890000       1.87020000
H        3.39120000      -1.81540000       2.05480000
H        4.52800000      -3.31400000       0.01980000
