18
Properties=species:S:1:pos:R:3 gdb_42472=T pbc="F F F"
O       -0.15680000      -0.09400000      -0.31710000
C       -0.03400000       1.09120000      -0.09150000
C        1.30820000       1.79140000      -0.01830000
C        2.48890000       0.85250000      -0.25290000
N        3.73570000       1.60840000      -0.23530000
C        4.39280000       1.74020000       1.06280000
C        4.94770000       0.83870000       0.01600000
C       -1.19260000       1.94490000       0.12720000
C       -2.13810000       2.66720000       0.30960000
H        1.31640000       2.60760000      -0.75200000
H        1.38310000       2.28490000       0.96030000
H        2.47430000       0.04220000       0.49580000
H        2.38800000       0.37520000      -1.23280000
H        4.85380000       2.70220000       1.26710000
H        3.92270000       1.26670000       1.92410000
H        4.84690000      -0.23300000       0.18080000
H        5.82120000       1.13080000      -0.55980000
H       -2.98500000       3.29010000       0.46750000
