16
Properties=species:S:1:pos:R:3 gdb_51322=T pbc="F F F"
O        0.12660000      -0.05440000      -0.03070000
C        0.03950000       1.12280000       0.11970000
O        1.08710000       1.95200000      -0.20680000
C        0.90940000       3.31570000      -0.14430000
N       -0.23230000       3.84530000      -0.18530000
C       -0.29100000       5.30370000      -0.07860000
C        0.98980000       5.91460000       0.48210000
O        2.11830000       5.40560000      -0.21630000
C        2.24380000       4.01510000      -0.04740000
H       -0.81880000       1.67360000       0.52430000
H       -0.49950000       5.70660000      -1.07740000
H       -1.14690000       5.56700000       0.55340000
H        1.00460000       6.99940000       0.35050000
H        1.07740000       5.69600000       1.55920000
H        2.70770000       3.75700000       0.92080000
H        2.90610000       3.64100000      -0.83430000
