16
Properties=species:S:1:pos:R:3 gdb_65470=T pbc="F F F"
O       -0.47990000       1.29660000      -0.17790000
C       -0.17470000      -0.03530000       0.02080000
C       -0.33060000      -0.60990000       1.41700000
C       -1.33560000      -0.98960000       0.38570000
O       -2.59940000      -0.42720000       0.52530000
C       -3.21160000      -0.02450000      -0.62120000
N       -4.40130000       0.38190000      -0.56990000
C        0.86700000      -0.55810000      -0.88430000
O        1.36680000       0.14070000      -1.73860000
H        0.06450000       1.56310000      -0.93720000
H        0.37510000      -1.35590000       1.76530000
H       -0.66110000       0.11300000       2.15400000
H       -1.32580000      -1.99920000      -0.02020000
H       -2.56930000      -0.10190000      -1.50550000
H       -4.71600000       0.65850000      -1.49750000
H        1.15270000      -1.62090000      -0.74990000
