20
Properties=species:S:1:pos:R:3 gdb_120565=T pbc="F F F"
C        0.01990000       1.53520000      -0.15160000
C        0.00270000       0.02330000       0.02080000
C        1.30450000      -0.76800000      -0.03850000
C        0.57080000      -0.65710000       1.26840000
C        1.11990000       0.13080000       2.43760000
C        2.03520000      -0.72070000       3.31440000
O        2.49980000       0.10390000       4.36990000
C       -1.15670000      -0.61530000      -0.55490000
N       -2.09220000      -1.11800000      -1.01470000
H        0.93800000       1.96490000       0.25290000
H       -0.03630000       1.79780000      -1.21200000
H       -0.82950000       1.99990000       0.35780000
H        1.30640000      -1.71460000      -0.56540000
H        2.20490000      -0.17550000      -0.16700000
H        0.02230000      -1.54920000       1.55960000
H        1.69110000       1.00000000       2.09750000
H        0.30180000       0.51260000       3.05960000
H        1.47730000      -1.59000000       3.69890000
H        2.86930000      -1.11080000       2.70930000
H        3.06350000      -0.42490000       4.94180000
