15
Properties=species:S:1:pos:R:3 gdb_54054=T pbc="F F F"
C        0.03470000       1.51520000       0.05440000
C        0.04340000       0.00110000       0.05100000
O        1.06260000      -0.64680000       0.07490000
N       -1.19890000      -0.66790000       0.01680000
C       -1.17010000      -2.13340000       0.02910000
C       -1.01010000      -2.67620000       1.38260000
N       -0.89320000      -3.11080000       2.44580000
C       -2.44330000      -0.04780000      -0.04120000
O       -3.48690000      -0.64880000      -0.08660000
H        1.07330000       1.84150000       0.09350000
H       -0.43520000       1.91970000      -0.84690000
H       -0.49980000       1.91110000       0.92290000
H       -2.11790000      -2.47990000      -0.38680000
H       -0.33760000      -2.47170000      -0.58960000
H       -2.37990000       1.04950000      -0.04840000
