19
Properties=species:S:1:pos:R:3 gdb_57685=T pbc="F F F"
C       -0.81190000       1.22160000      -0.58050000
C       -0.15550000      -0.06340000      -0.01960000
C        0.53410000       0.23070000       1.32630000
N       -1.07110000      -1.21430000       0.09990000
C       -1.96580000      -1.31740000       1.25100000
C       -3.01580000      -0.29760000       1.40300000
C       -3.88990000       0.51970000       1.52600000
C        0.88750000      -0.49170000      -0.98360000
N        1.69330000      -0.80120000      -1.75190000
H       -0.06280000       2.00500000      -0.72910000
H       -1.28560000       1.01990000      -1.54560000
H       -1.57290000       1.58130000       0.11350000
H       -0.18500000       0.64350000       2.03860000
H        0.97660000      -0.67720000       1.74320000
H        1.32710000       0.96700000       1.18060000
H       -1.59580000      -1.31940000      -0.76120000
H       -2.44760000      -2.29980000       1.18070000
H       -1.36440000      -1.35240000       2.16470000
H       -4.66240000       1.24110000       1.63240000
