22
Properties=species:S:1:pos:R:3 gdb_85040=T pbc="F F F"
C       -0.30090000       1.47670000       0.04870000
C       -0.00190000      -0.01600000      -0.05460000
C        0.87220000      -0.44380000      -1.25560000
C        2.01540000       0.51880000      -1.62160000
C        1.46920000      -1.76860000      -0.77130000
O        2.04650000      -2.58110000      -1.44570000
C        1.20480000      -1.86900000       0.72780000
N        0.75350000      -0.53640000       1.09940000
C        0.06210000      -0.49550000       2.37260000
H        0.61010000       2.04950000       0.24080000
H       -0.74880000       1.83660000      -0.88300000
H       -1.01230000       1.68760000       0.85180000
H       -0.97090000      -0.55100000      -0.14270000
H        0.26480000      -0.63210000      -2.14620000
H        2.62400000       0.75750000      -0.74460000
H        2.66000000       0.05150000      -2.37080000
H        1.62790000       1.45360000      -2.03580000
H        0.43180000      -2.65110000       0.88220000
H        2.09800000      -2.18170000       1.27800000
H        0.71240000      -0.89730000       3.15600000
H       -0.18560000       0.53360000       2.64410000
H       -0.87370000      -1.08840000       2.37260000
