21
Properties=species:S:1:pos:R:3 gdb_76426=T pbc="F F F"
C       -0.05070000       1.47140000      -0.26570000
C        0.08040000      -0.00760000       0.02910000
C        1.43890000      -0.68820000       0.03290000
O        2.59890000       0.07990000      -0.11450000
C        0.68200000      -0.53790000       1.32590000
C        1.19220000       0.42070000       2.38370000
C        0.03280000      -1.80740000       1.88600000
C        0.94610000      -2.63960000       2.66470000
C        1.71050000      -3.31570000       3.30010000
H        0.86560000       2.01330000      -0.02260000
H       -0.26040000       1.63440000      -1.32910000
H       -0.87150000       1.92300000       0.30170000
H       -0.73230000      -0.60900000      -0.37400000
H        1.50980000      -1.69060000      -0.39090000
H        2.67240000       0.33350000      -1.04060000
H        1.80990000       1.20700000       1.95000000
H        0.35980000       0.88640000       2.92400000
H        1.80570000      -0.11860000       3.11210000
H       -0.82620000      -1.52600000       2.51120000
H       -0.37850000      -2.40360000       1.06180000
H        2.38200000      -3.91710000       3.86100000
