19
Properties=species:S:1:pos:R:3 gdb_104096=T pbc="F F F"
O       -0.11360000       1.42590000       0.02090000
C        0.00950000       0.00390000      -0.04560000
C       -1.41650000      -0.53850000      -0.04310000
O       -2.08390000      -0.06340000       1.12160000
C       -2.22870000      -0.16230000      -1.31940000
C       -2.98280000      -1.42630000      -1.64210000
C       -2.60370000      -2.45880000      -0.88890000
C       -1.47350000      -2.09710000       0.03620000
O       -0.25320000      -2.75140000      -0.32560000
H        0.74330000       1.79700000       0.24720000
H        0.54700000      -0.30800000      -0.95030000
H        0.54810000      -0.39090000       0.82500000
H       -1.85290000       0.87290000       1.18240000
H       -2.89570000       0.67770000      -1.10130000
H       -1.59120000       0.15330000      -2.15580000
H       -3.75150000      -1.46470000      -2.40750000
H       -2.99830000      -3.46720000      -0.94380000
H       -1.65060000      -2.37390000       1.07950000
H       -0.23490000      -2.80930000      -1.28720000
