20
Properties=species:S:1:pos:R:3 gdb_55690=T pbc="F F F"
C       -0.23530000       1.87480000      -0.18040000
C       -0.15530000       0.35710000      -0.18370000
C       -1.51990000      -0.31150000       0.03680000
C       -2.21140000       0.04980000       1.35700000
N       -1.45890000      -0.20430000       2.46620000
O       -3.34620000       0.48480000       1.40130000
C        0.68140000      -0.28640000      -1.32220000
C        1.56190000      -0.84700000      -0.19210000
O        0.82160000      -0.11490000       0.80900000
H        0.75880000       2.31020000      -0.31260000
H       -0.88200000       2.22320000      -0.99240000
H       -0.64920000       2.24180000       0.76340000
H       -2.20370000      -0.02680000      -0.76660000
H       -1.39070000      -1.39970000      -0.00140000
H       -0.46840000      -0.37740000       2.36250000
H       -1.82300000       0.10540000       3.35300000
H        0.15880000      -1.01930000      -1.93870000
H        1.17990000       0.43840000      -1.96790000
H        1.49370000      -1.93100000      -0.03940000
H        2.61790000      -0.55730000      -0.20320000
