17
Properties=species:S:1:pos:R:3 gdb_46258=T pbc="F F F"
O        0.00620000       0.01860000      -0.15000000
C       -0.03610000       1.20770000      -0.02890000
C       -1.16420000       2.21660000       0.25890000
C       -0.05650000       3.24990000       0.63120000
C        1.03300000       2.30530000       0.04370000
C        2.45680000       2.14040000       0.66720000
C        3.05440000       2.60790000      -0.66880000
O        2.59400000       1.70400000      -1.68000000
C        1.72140000       2.75160000      -1.27190000
H       -1.72450000       2.47710000      -0.64470000
H       -1.87510000       1.92620000       1.03600000
H       -0.13480000       4.23210000       0.16010000
H        0.04640000       3.38520000       1.71030000
H        2.61960000       2.84240000       1.48930000
H        2.73590000       1.13000000       0.97410000
H        3.98130000       3.13450000      -0.86190000
H        1.33280000       3.41970000      -2.03290000
