14
Properties=species:S:1:pos:R:3 gdb_129050=T pbc="F F F"
N       -0.12900000       1.29300000       0.58290000
C       -0.00400000       0.11810000       0.09460000
C        1.25320000      -0.49250000      -0.31570000
C        1.50340000      -1.63150000      -0.97800000
O        0.72080000      -2.55030000      -1.59080000
N       -0.64190000      -2.43920000      -1.83850000
C       -1.39880000      -1.64690000      -1.17920000
C       -1.24640000      -0.71250000      -0.03360000
N       -2.18270000      -0.57740000       0.82050000
H        0.78050000       1.76140000       0.61610000
H        2.14660000       0.04130000      -0.00330000
H        2.53050000      -1.94960000      -1.12940000
H       -2.43150000      -1.74840000      -1.51690000
H       -2.97870000      -1.18000000       0.59070000
