18
Properties=species:S:1:pos:R:3 gdb_124762=T pbc="F F F"
C        0.24470000       1.36000000      -0.46840000
C        0.02930000      -0.01140000       0.16950000
O        0.37080000      -0.01760000       1.55790000
C       -1.37040000      -0.53220000      -0.02270000
C       -2.32730000      -0.35400000      -1.00520000
C       -3.41920000      -1.15920000      -0.59160000
N       -4.66800000      -1.27120000      -1.20650000
N       -3.16560000      -1.78790000       0.55320000
N       -1.91190000      -1.38380000       0.87710000
H        1.26870000       1.69550000      -0.28550000
H        0.07930000       1.31990000      -1.54910000
H       -0.45020000       2.09650000      -0.05000000
H        0.74070000      -0.72020000      -0.27410000
H       -0.17420000       0.65070000       1.99030000
H       -2.26100000       0.26920000      -1.88190000
H       -4.61020000      -1.33640000      -2.21400000
H       -5.19000000      -2.05460000      -0.83400000
H       -1.47580000      -1.70050000       1.72570000
