21
Properties=species:S:1:pos:R:3 gdb_119426=T pbc="F F F"
C       -0.79990000       1.26130000       0.51550000
O       -1.01540000      -0.12920000       0.57440000
C       -0.67880000      -0.78740000      -0.62720000
C       -0.93740000      -2.25240000      -0.45000000
C       -0.76880000      -3.05680000       0.80020000
C       -2.10520000      -3.06370000       0.06770000
C       -3.41180000      -2.67610000       0.69430000
C       -1.92450000      -3.87060000      -1.21720000
O       -0.76270000      -3.08310000      -1.60420000
H       -1.08620000       1.67700000       1.48450000
H        0.25730000       1.50100000       0.32240000
H       -1.40850000       1.73540000      -0.27020000
H       -1.27590000      -0.40170000      -1.47060000
H        0.38370000      -0.62470000      -0.88250000
H       -0.11910000      -3.92880000       0.79170000
H       -0.77130000      -2.47970000       1.71880000
H       -3.27530000      -1.82130000       1.36230000
H       -4.14960000      -2.39210000      -0.06510000
H       -3.83760000      -3.49950000       1.28050000
H       -1.69120000      -4.93880000      -1.12900000
H       -2.73860000      -3.72900000      -1.93870000
