21
Properties=species:S:1:pos:R:3 gdb_41492=T pbc="F F F"
C       -0.03000000       1.51240000       0.08040000
O        1.27320000       1.93880000      -0.31050000
C        2.09290000       0.80590000      -0.58930000
C        1.21980000      -0.39260000      -0.34500000
C        0.00610000       0.01080000       0.03130000
C       -1.13740000      -0.90550000       0.34600000
C       -0.83690000      -2.33300000      -0.14970000
C        0.60390000      -2.75580000       0.17720000
C        1.63500000      -1.82540000      -0.48980000
H       -0.26310000       1.89750000       1.08730000
H       -0.78350000       1.93660000      -0.60430000
H        2.46080000       0.85690000      -1.62780000
H        2.98180000       0.81760000       0.06360000
H       -1.32520000      -0.91010000       1.43030000
H       -2.06450000      -0.53330000      -0.10970000
H       -1.54930000      -3.03990000       0.28860000
H       -0.98370000      -2.37140000      -1.23680000
H        0.74800000      -2.72640000       1.26490000
H        0.77630000      -3.79140000      -0.13460000
H        1.74270000      -2.07760000      -1.55550000
H        2.62860000      -1.98360000      -0.05010000
