16
Properties=species:S:1:pos:R:3 gdb_51762=T pbc="F F F"
O       -0.11820000       0.01750000       0.40300000
C       -0.04840000       1.19660000       0.13800000
N        1.09480000       1.85100000      -0.22990000
C        2.37390000       1.20400000      -0.25890000
C        3.26390000       1.51100000      -1.49390000
N        4.03110000       2.48180000      -0.67980000
C        3.51580000       1.90130000       0.57640000
C        3.11380000       2.87700000       1.58790000
N        2.76550000       3.64800000       2.37520000
H       -0.92050000       1.87700000       0.15270000
H        1.05110000       2.84920000      -0.37080000
H        2.20380000       0.15620000      -0.02160000
H        3.83010000       0.62960000      -1.82230000
H        2.75690000       1.95150000      -2.35770000
H        5.03910000       2.47410000      -0.78440000
H        4.16580000       1.15080000       1.04640000
