19
Properties=species:S:1:pos:R:3 gdb_82851=T pbc="F F F"
O        0.10800000       1.42400000       0.05020000
C       -0.00370000       0.03000000       0.00920000
C       -1.40860000      -0.65240000      -0.04520000
C       -2.32790000       0.13310000      -1.01090000
C       -1.72770000      -0.27090000      -2.37100000
C       -1.64740000      -1.79980000      -2.25160000
C       -0.77720000      -1.74610000      -0.99820000
C        0.29100000      -0.66100000      -1.33600000
O       -0.33350000       0.11760000      -2.37980000
H       -0.03600000       1.72060000      -0.85890000
H        0.60010000      -0.38590000       0.82210000
H       -1.87800000      -0.94690000       0.89340000
H       -3.37150000      -0.18940000      -0.93830000
H       -2.29070000       1.21000000      -0.82750000
H       -2.19930000       0.15090000      -3.25870000
H       -2.62150000      -2.26960000      -2.09210000
H       -1.14980000      -2.26190000      -3.10820000
H       -0.42330000      -2.67280000      -0.55270000
H        1.31230000      -0.89830000      -1.63990000
