20
Properties=species:S:1:pos:R:3 gdb_58293=T pbc="F F F"
C       -0.12780000       1.52170000      -0.40050000
C       -0.06300000       0.07690000       0.08930000
O        0.34410000      -0.00110000       1.44930000
C       -1.39360000      -0.67560000      -0.13340000
O       -1.77620000      -0.61070000      -1.51570000
C       -1.33920000      -2.11800000       0.38360000
C       -2.68120000      -2.85200000       0.48320000
N       -3.53900000      -2.63470000      -0.55320000
O       -2.93560000      -3.59650000       1.41060000
H        0.84120000       2.00940000      -0.26710000
H       -0.41260000       1.56770000      -1.45380000
H       -0.87790000       2.08540000       0.16950000
H        0.72140000      -0.46020000      -0.46420000
H       -0.22020000       0.58890000       1.96190000
H       -2.18830000      -0.12860000       0.39170000
H       -1.11410000      -1.09640000      -2.02270000
H       -0.67320000      -2.70420000      -0.26710000
H       -0.89590000      -2.13100000       1.37950000
H       -3.32900000      -1.94240000      -1.25660000
H       -4.45040000      -3.05960000      -0.50660000
