16
Properties=species:S:1:pos:R:3 gdb_36541=T pbc="F F F"
C        0.14250000      -1.04560000      -0.47710000
C        0.11600000       0.10940000      -0.14640000
C        0.08750000       1.51380000       0.26290000
N        1.42020000       2.12600000       0.24210000
C        1.81160000       2.64420000      -0.84470000
O        1.08570000       2.68560000      -2.01260000
C        1.84250000       3.35910000      -3.02120000
C        3.13120000       3.73290000      -2.34850000
C        3.09700000       3.30870000      -1.08540000
H        0.16440000      -2.06580000      -0.76980000
H       -0.62420000       2.05590000      -0.37530000
H       -0.28610000       1.57470000       1.29150000
H        1.98430000       2.68180000      -3.87390000
H        1.27610000       4.23070000      -3.37620000
H        3.92950000       4.26310000      -2.85000000
H        3.84830000       3.40420000      -0.31630000
