22
Properties=species:S:1:pos:R:3 gdb_58867=T pbc="F F F"
C       -0.10620000       1.55980000       0.24560000
C        0.00440000       0.04010000       0.02380000
C        0.85830000      -0.62750000       1.11020000
C       -1.36890000      -0.56530000      -0.11520000
N       -2.30060000      -0.76560000       1.02890000
C       -1.95090000      -1.91320000       0.14260000
C       -2.90270000      -1.81210000      -1.04640000
C       -2.33680000      -0.36120000      -1.30250000
O       -3.21310000       0.72750000      -1.20820000
H        0.88080000       2.03240000       0.21610000
H       -0.73780000       2.02440000      -0.51650000
H       -0.55460000       1.77600000       1.22180000
H        0.50970000      -0.12200000      -0.93920000
H        0.94110000      -1.70740000       0.95140000
H        1.86970000      -0.20970000       1.10900000
H        0.44550000      -0.45950000       2.11200000
H       -1.73820000      -0.84690000       1.87460000
H       -1.48700000      -2.79840000       0.56090000
H       -2.67000000      -2.50310000      -1.86010000
H       -3.96770000      -1.86500000      -0.80640000
H       -1.82220000      -0.28090000      -2.26350000
H       -3.53520000       0.70920000      -0.29580000
