18
Properties=species:S:1:pos:R:3 gdb_7048=T pbc="F F F"
C        0.01310000       1.48640000      -0.03070000
C        0.01840000       0.03010000      -0.02170000
C        0.02480000      -1.17420000      -0.00180000
C        0.02260000      -2.63630000      -0.00750000
C       -1.39630000      -3.20060000       0.19040000
C        0.67380000      -3.16160000      -1.32240000
C        0.84860000      -4.60820000      -1.33840000
C        0.99310000      -5.80180000      -1.32700000
H        0.64270000       1.89230000       0.76900000
H        0.39120000       1.88030000      -0.98060000
H       -0.99850000       1.88250000       0.11160000
H        0.64880000      -2.99050000       0.82200000
H       -2.05790000      -2.86770000      -0.61560000
H       -1.37150000      -4.29350000       0.19200000
H       -1.81810000      -2.85600000       1.13790000
H        0.05280000      -2.84890000      -2.17100000
H        1.64490000      -2.67160000      -1.45420000
H        1.12500000      -6.85530000      -1.33140000
