19
Properties=species:S:1:pos:R:3 gdb_91815=T pbc="F F F"
O        0.00680000       1.43580000       0.04850000
C        0.03770000       0.02200000       0.01210000
C        0.77490000      -0.65030000       1.20080000
C        0.08950000      -1.99770000       1.38070000
C       -1.23180000      -1.99850000       2.12320000
C       -1.23920000      -1.97490000       0.63140000
O       -1.76850000      -3.10100000       0.00080000
C       -1.38700000      -0.61350000      -0.04130000
O       -2.32710000       0.20210000       0.64780000
H       -0.36390000       1.67820000       0.90530000
H        0.55890000      -0.23240000      -0.91720000
H        1.84400000      -0.74840000       0.99600000
H        0.68340000      -0.02520000       2.09880000
H        0.67990000      -2.90640000       1.40210000
H       -1.53960000      -2.93860000       2.56660000
H       -1.53940000      -1.10730000       2.65860000
H       -1.27070000      -3.25720000      -0.80920000
H       -1.71290000      -0.76110000      -1.08050000
H       -2.34060000       1.04600000       0.18020000
