17
Properties=species:S:1:pos:R:3 gdb_30858=T pbc="F F F"
C        0.42500000       0.99590000      -0.40610000
N       -0.33270000       0.40610000       0.70470000
C       -1.32710000      -0.51240000       0.34270000
C       -1.34610000      -1.76950000      -0.19760000
O       -0.26710000      -2.51220000      -0.54760000
N       -2.61970000      -2.25520000      -0.34220000
C       -3.40450000      -1.28590000       0.09410000
N       -4.79770000      -1.30260000       0.05220000
N       -2.69600000      -0.21780000       0.52210000
H        1.16250000       1.69750000      -0.00280000
H        0.94740000       0.25350000      -1.02630000
H       -0.25830000       1.55640000      -1.05100000
H        0.30370000       0.01300000       1.38860000
H       -0.61570000      -3.34560000      -0.88530000
H       -5.23260000      -1.04590000       0.93080000
H       -5.11580000      -2.22130000      -0.23040000
H       -3.04970000       0.66900000       0.83820000
