14
Properties=species:S:1:pos:R:3 gdb_129920=T pbc="F F F"
N        0.12000000       1.43780000       0.12880000
C        0.00120000       0.05170000       0.01080000
C       -1.06870000      -0.78950000      -0.03020000
N       -0.61070000      -2.11470000      -0.07130000
C        0.75530000      -2.08410000      -0.03240000
N        1.77730000      -2.90780000      -0.01940000
N        2.89130000      -2.08450000       0.03140000
C        2.51170000      -0.82820000       0.04890000
N        1.13540000      -0.76520000       0.00800000
H        0.58480000       1.86430000      -0.66750000
H       -0.78000000       1.88170000       0.25900000
H       -2.11940000      -0.55610000      -0.05580000
H       -1.16680000      -2.93730000       0.07450000
H        3.15630000       0.03290000       0.09170000
