20
Properties=species:S:1:pos:R:3 gdb_47086=T pbc="F F F"
N        0.08750000       1.19750000       0.39740000
C        0.05750000      -0.01450000       0.04330000
O        1.14700000      -0.71850000      -0.38790000
C        0.78260000      -2.06390000      -0.74250000
C       -0.56980000      -2.32110000      -0.07450000
C       -0.51510000      -2.81650000       1.38310000
C       -1.81390000      -2.27170000       1.99880000
C       -1.98230000      -0.86310000       1.37690000
C       -1.17470000      -0.90300000       0.05140000
H        1.03020000       1.57810000       0.30070000
H        0.72390000      -2.13600000      -1.83540000
H        1.57940000      -2.72670000      -0.39290000
H       -1.19070000      -2.98740000      -0.67960000
H       -0.41820000      -3.90330000       1.46000000
H        0.35390000      -2.37330000       1.88660000
H       -2.65380000      -2.91380000       1.70730000
H       -1.79150000      -2.25070000       3.09170000
H       -3.03270000      -0.61950000       1.20200000
H       -1.57780000      -0.08070000       2.02350000
H       -1.79120000      -0.63190000      -0.81080000
