20
Properties=species:S:1:pos:R:3 gdb_18701=T pbc="F F F"
C       -0.94410000       1.16870000       0.07310000
C        0.07220000       0.01720000      -0.02270000
C        0.99490000       0.19170000      -1.20380000
C        2.28590000      -0.13680000      -1.21620000
C        3.01630000      -0.73510000      -0.04480000
C        2.29150000      -0.55400000       1.27770000
C        1.87390000       0.82740000       1.72010000
C        0.82980000      -0.17450000       1.28500000
H       -0.43770000       2.12410000       0.24430000
H       -1.52820000       1.25560000      -0.84950000
H       -1.64340000       1.00600000       0.89980000
H       -0.50580000      -0.90480000      -0.19840000
H        0.54090000       0.60190000      -2.10400000
H        2.86480000       0.00790000      -2.12550000
H        3.16580000      -1.80930000      -0.23180000
H        4.02820000      -0.31040000       0.01770000
H        2.61990000      -1.22740000       2.06420000
H        1.94280000       1.07720000       2.77310000
H        2.09090000       1.65220000       1.04870000
H        0.22500000      -0.59950000       2.08170000
