23
Properties=species:S:1:pos:R:3 gdb_112960=T pbc="F F F"
C       -0.16090000       1.49140000       0.31360000
C       -0.03910000      -0.03480000       0.17760000
C        0.64650000      -0.63680000       1.41050000
C       -1.41600000      -0.63180000      -0.11150000
C       -1.63620000      -2.15860000      -0.20540000
C       -2.73600000      -1.92490000       0.84770000
C       -2.66030000      -2.65340000       2.17650000
O       -3.47340000      -2.01270000       3.14020000
O       -2.33790000      -0.53730000       1.01130000
H        0.81620000       1.94930000       0.49560000
H       -0.58150000       1.94130000      -0.59190000
H       -0.81710000       1.74870000       1.15150000
H        0.57460000      -0.25540000      -0.70870000
H        0.81260000      -1.71370000       1.31130000
H        1.62350000      -0.17000000       1.56880000
H        0.04250000      -0.46760000       2.30670000
H       -1.84580000      -0.10840000      -0.97860000
H       -1.95930000      -2.53840000      -1.17510000
H       -0.80190000      -2.76250000       0.15850000
H       -3.75970000      -1.97880000       0.45330000
H       -3.03200000      -3.67890000       2.06790000
H       -1.60990000      -2.70710000       2.50590000
H       -3.21910000      -1.08190000       3.12220000
