15
Properties=species:S:1:pos:R:3 gdb_46650=T pbc="F F F"
O        0.02830000       0.01220000       0.18640000
C       -0.02400000       1.19970000       0.00470000
C       -1.29660000       2.01260000      -0.29990000
N       -0.86600000       3.34580000      -0.75580000
C        0.56300000       3.45400000      -0.55150000
C        1.05160000       3.39200000       0.87410000
C        0.15450000       3.46460000       1.99360000
N       -0.56720000       3.53550000       2.89460000
C        1.13860000       2.14990000      -0.03980000
H       -1.89390000       1.49370000      -1.05390000
H       -1.89960000       2.07460000       0.61350000
H       -1.06840000       3.46630000      -1.73950000
H        1.09450000       4.10110000      -1.23810000
H        2.01580000       3.85400000       1.05920000
H        2.12270000       1.75730000      -0.25860000
