16
Properties=species:S:1:pos:R:3 gdb_28748=T pbc="F F F"
O        0.31320000       1.26380000       0.31430000
C        0.13760000      -0.04730000       0.01870000
C       -0.12340000      -0.72750000      -1.14790000
C       -0.19620000      -2.11070000      -0.79690000
C        0.01020000      -2.22490000       0.55570000
C        0.06870000      -3.40810000       1.47060000
C        1.47540000      -3.49600000       2.04160000
O        1.78300000      -3.09260000       3.13540000
N        0.21870000      -0.94070000       1.04440000
H        0.24160000       1.77030000      -0.50030000
H       -0.25610000      -0.29180000      -2.12590000
H       -0.39470000      -2.93150000      -1.46960000
H       -0.63970000      -3.32820000       2.30350000
H       -0.15760000      -4.30970000       0.89320000
H        2.23610000      -3.90040000       1.33730000
H        0.44650000      -0.70320000       1.99580000
