19
Properties=species:S:1:pos:R:3 gdb_87872=T pbc="F F F"
C       -0.04660000       1.50050000       0.35210000
C       -0.04600000      -0.00580000       0.21140000
C        1.19950000      -0.72960000      -0.29130000
C        0.77270000      -0.83890000       1.13780000
O        1.56020000      -0.27380000       2.20590000
C        1.28550000      -1.41100000       3.04620000
C       -0.01790000      -1.28530000       3.85170000
O       -0.78900000      -1.86870000       2.76830000
C        0.39290000      -2.05470000       1.96600000
H        0.91100000       1.85600000       0.74230000
H       -0.22730000       1.98720000      -0.61210000
H       -0.82730000       1.82700000       1.04700000
H       -0.99840000      -0.44270000      -0.07960000
H        1.08770000      -1.59410000      -0.93830000
H        2.07960000      -0.12450000      -0.48660000
H        2.18100000      -1.82290000       3.51200000
H       -0.07120000      -1.90840000       4.75320000
H       -0.31740000      -0.25810000       4.08480000
H        0.46530000      -3.05260000       1.53050000
