14
Properties=species:S:1:pos:R:3 gdb_125781=T pbc="F F F"
C        0.06660000       1.48600000      -0.00650000
C       -0.06110000      -0.00200000       0.03730000
N       -0.29110000      -0.66760000      -1.07190000
O       -0.36250000      -2.02390000      -0.68940000
C       -0.15640000      -2.09190000       0.62960000
O       -0.21800000      -3.29990000       1.22190000
C        0.19980000      -4.41840000       0.52270000
O        0.08870000      -5.50020000       0.99560000
C        0.03860000      -0.86400000       1.16940000
H        1.04660000       1.80370000       0.36350000
H       -0.05480000       1.84160000      -1.03120000
H       -0.69310000       1.95940000       0.62340000
H        0.62470000      -4.16800000      -0.45890000
H        0.22780000      -0.61710000       2.19940000
