16
Properties=species:S:1:pos:R:3 gdb_27624=T pbc="F F F"
C       -0.04710000       1.50070000       0.08000000
C        0.01120000       0.01620000      -0.01750000
C        0.01920000      -0.81650000      -1.12290000
C        0.08500000      -2.17970000      -0.65280000
C        0.11410000      -2.11280000       0.71230000
O        0.17460000      -3.04240000       1.69820000
N        0.07000000      -0.79880000       1.09490000
C       -0.02910000      -0.39560000      -2.47110000
C       -0.06980000      -0.04630000      -3.62470000
H        0.83130000       1.91850000       0.58860000
H       -0.08400000       1.92310000      -0.92620000
H       -0.93570000       1.84700000       0.62340000
H        0.10670000      -3.06750000      -1.26390000
H        0.20130000      -3.91360000       1.29110000
H        0.07990000      -0.49230000       2.05270000
H       -0.10560000       0.26200000      -4.63940000
