15
Properties=species:S:1:pos:R:3 gdb_43327=T pbc="F F F"
O       -0.02780000       0.10450000      -0.66610000
C       -0.04920000       1.21230000      -0.17670000
C       -1.29460000       1.94510000       0.10490000
C       -1.31270000       3.11870000       0.75770000
C       -0.11310000       3.75780000       1.33260000
C        0.63220000       2.99710000       2.40900000
C        1.23800000       3.13620000       1.02330000
C        1.28810000       1.95530000       0.11620000
O        2.30410000       1.59570000      -0.42570000
H       -2.20790000       1.47100000      -0.24040000
H       -2.26150000       3.62070000       0.93280000
H       -0.14530000       4.83690000       1.43560000
H        1.10980000       3.55770000       3.20410000
H        0.22650000       2.03530000       2.70140000
H        2.09870000       3.78990000       0.93900000
