18
Properties=species:S:1:pos:R:3 gdb_90307=T pbc="F F F"
O        0.07740000       1.43220000       0.07690000
C        0.05630000       0.03870000       0.05740000
C        0.12690000      -0.66080000       1.48440000
C       -1.37520000      -0.74090000       1.36750000
C       -2.47130000      -0.23910000       1.94460000
C       -3.38770000       0.26850000       0.87340000
N       -2.77310000       1.45590000       0.19990000
C       -2.66620000       0.12030000      -0.43700000
C       -1.37850000      -0.61850000      -0.14040000
H       -0.81680000       1.73840000       0.31460000
H        0.82300000      -0.30310000      -0.64450000
H        0.63530000      -1.62860000       1.42320000
H        0.54850000      -0.06640000       2.29690000
H       -2.60510000      -0.00270000       2.99330000
H       -4.46960000       0.24340000       0.94850000
H       -3.49170000       1.98940000      -0.28420000
H       -3.20760000      -0.04470000      -1.36140000
H       -1.30040000      -1.56170000      -0.68980000
