23
Properties=species:S:1:pos:R:3 gdb_102552=T pbc="F F F"
C        0.73730000       0.71720000      -0.97670000
C        0.08990000      -0.61550000      -0.59750000
C       -1.26510000      -0.45100000       0.09730000
O       -2.14320000       0.17660000      -0.82600000
C       -3.17140000       0.92920000      -0.22260000
C       -1.79500000      -1.80310000       0.60250000
C       -1.37300000      -2.18360000       2.00580000
C       -3.01130000      -2.39380000       0.02190000
O       -1.71950000      -2.87280000      -0.35480000
H        1.68170000       0.55700000      -1.50560000
H        0.07510000       1.29410000      -1.62700000
H        0.95260000       1.32440000      -0.08960000
H       -0.07210000      -1.23510000      -1.48480000
H        0.75390000      -1.18620000       0.06260000
H       -1.14210000       0.20530000       0.97560000
H       -3.76880000       1.36500000      -1.02750000
H       -3.82840000       0.31190000       0.40800000
H       -2.76450000       1.74230000       0.39820000
H       -1.80360000      -1.49700000       2.74290000
H       -1.70120000      -3.19930000       2.23880000
H       -0.28340000      -2.14730000       2.11270000
H       -3.60920000      -3.08080000       0.62140000
H       -3.54530000      -1.86190000      -0.76090000
