18
Properties=species:S:1:pos:R:3 gdb_86864=T pbc="F F F"
C       -0.72380000       1.05960000       0.11030000
C        0.24100000      -0.12070000       0.05100000
C        1.19970000      -0.15570000      -1.15240000
C        2.39310000      -0.93710000      -0.59260000
O        2.40680000      -0.69090000       0.82290000
C        1.19320000      -0.18860000       1.23180000
N        0.93130000       0.15520000       2.41540000
C        2.31280000      -2.44410000      -0.82960000
O        1.86270000      -2.94180000      -1.82740000
H       -0.18030000       2.00860000       0.06190000
H       -1.43170000       1.02580000      -0.72300000
H       -1.28140000       1.04240000       1.04920000
H       -0.33790000      -1.05540000       0.06470000
H        0.78980000      -0.65050000      -2.03420000
H        1.50530000       0.85820000      -1.42780000
H        3.35570000      -0.59700000      -0.99490000
H        1.73360000       0.00220000       3.02830000
H        2.72280000      -3.05050000       0.00760000
