16
Properties=species:S:1:pos:R:3 gdb_125301=T pbc="F F F"
C       -0.01890000       1.51610000       0.06580000
C       -0.00740000       0.02300000       0.00780000
C       -0.02840000      -0.78980000      -1.07460000
C       -0.00590000      -2.26640000      -0.69970000
C        0.03240000      -2.19090000       0.79750000
C        0.03030000      -0.87530000       1.15560000
O        0.06310000      -0.71510000       2.47610000
N        0.08980000      -2.00780000       3.05240000
C        0.07040000      -2.85630000       2.04050000
H        0.87080000       1.89760000       0.57960000
H       -0.04890000       1.94890000      -0.93690000
H       -0.88700000       1.88230000       0.62560000
H       -0.05810000      -0.45190000      -2.10330000
H       -0.89020000      -2.78840000      -1.08760000
H        0.86590000      -2.77320000      -1.13330000
H        0.08550000      -3.91260000       2.27140000
