16
Properties=species:S:1:pos:R:3 gdb_14951=T pbc="F F F"
O       -0.88440000       1.11370000       0.12560000
C        0.25570000       0.73930000       0.04770000
C        1.45230000       1.67610000       0.05170000
C        1.30910000       2.85400000       1.02130000
C        2.63950000       3.60890000       1.05730000
O        3.71090000       2.71130000       1.33020000
C        3.76270000       1.68090000       0.38690000
O        2.59360000       0.89450000       0.36930000
H        0.53070000      -0.33390000      -0.04570000
H        1.55150000       2.06910000      -0.98010000
H        0.48650000       3.50170000       0.70610000
H        1.07790000       2.46940000       2.01950000
H        2.81500000       4.11660000       0.09340000
H        2.65710000       4.36310000       1.84730000
H        3.93430000       2.10000000      -0.62400000
H        4.58470000       1.02140000       0.67000000
