17
Properties=species:S:1:pos:R:3 gdb_112328=T pbc="F F F"
O        0.06850000       1.34050000      -0.17580000
C        0.04310000      -0.07180000      -0.12070000
C       -1.35450000      -0.59450000       0.18890000
O       -2.24660000      -0.11230000      -0.85130000
C       -3.08960000      -1.09720000      -1.29880000
N       -4.10260000      -0.91640000      -2.02770000
C       -2.62410000      -2.40450000      -0.75890000
N       -1.21150000      -2.67900000      -1.13870000
C       -1.51850000      -2.10350000       0.18030000
H       -0.56010000       1.59950000      -0.85890000
H        0.38970000      -0.53250000      -1.05500000
H        0.72570000      -0.36860000       0.68320000
H       -1.70410000      -0.17540000       1.14050000
H       -4.23170000       0.07700000      -2.22760000
H       -3.32890000      -3.21670000      -0.64470000
H       -1.04500000      -3.67800000      -1.03850000
H       -1.34600000      -2.67140000       1.08710000
