16
Properties=species:S:1:pos:R:3 gdb_18078=T pbc="F F F"
C       -0.02860000       1.48600000      -0.01200000
C       -0.05610000       0.03070000      -0.01600000
C       -0.08520000      -1.17390000      -0.02890000
C       -0.11850000      -2.60760000      -0.04080000
C       -0.36240000      -3.46020000       1.20770000
C       -1.44800000      -2.80420000       2.05400000
O       -2.35210000      -2.74790000       0.91330000
C       -1.39060000      -3.41710000       0.10950000
H        0.62070000       1.87550000       0.78030000
H        0.34270000       1.87750000      -0.96570000
H       -1.03060000       1.90020000       0.14640000
H        0.59100000      -3.08690000      -0.71330000
H        0.32300000      -4.23460000       1.52390000
H       -1.85580000      -3.46230000       2.82820000
H       -1.23660000      -1.81180000       2.46510000
H       -1.74320000      -4.14060000      -0.61710000
