21
Properties=species:S:1:pos:R:3 gdb_73805=T pbc="F F F"
C        0.05420000       1.52020000       0.02270000
C        0.01000000       0.02510000      -0.03230000
C       -1.06640000      -0.77360000       0.01370000
C       -2.51340000      -0.40780000       0.13150000
C       -0.66660000      -2.24820000      -0.02610000
C        0.82480000      -2.20980000      -0.43690000
C        1.29740000      -0.76460000      -0.14860000
C       -0.87640000      -2.81560000       1.36730000
O       -1.84860000      -3.43010000       1.72490000
H        0.67100000       1.86130000       0.86440000
H        0.51640000       1.93150000      -0.88400000
H       -0.93590000       1.96890000       0.12870000
H       -2.66360000       0.66480000       0.27320000
H       -3.06550000      -0.70950000      -0.76810000
H       -2.98450000      -0.93370000       0.97030000
H       -1.29720000      -2.82630000      -0.71080000
H        1.42290000      -2.96250000       0.08650000
H        0.90400000      -2.42700000      -1.50540000
H        1.95070000      -0.37400000      -0.93890000
H        1.88010000      -0.69620000       0.78090000
H       -0.05400000      -2.57390000       2.08290000
