19
Properties=species:S:1:pos:R:3 gdb_88932=T pbc="F F F"
C        0.32840000       1.58900000      -0.20920000
C        0.04290000       0.11410000      -0.02710000
C        1.17060000      -0.88310000       0.08550000
C        0.30050000      -0.59100000       1.28290000
N        0.85370000       0.15640000       2.37080000
C        1.54880000      -0.46200000       3.37900000
N        1.88900000      -1.69310000       3.34900000
C        1.90720000       0.46280000       4.52280000
O        2.52730000       0.09660000       5.48560000
H        1.23140000       1.89020000       0.32930000
H        0.48100000       1.82420000      -1.26760000
H       -0.50270000       2.20950000       0.14740000
H       -0.84320000      -0.23400000      -0.55130000
H        1.07510000      -1.85380000      -0.38630000
H        2.18060000      -0.48990000       0.11610000
H       -0.39030000      -1.37700000       1.58160000
H        0.40140000       1.02760000       2.60440000
H        2.42980000      -1.89090000       4.19380000
H        1.56210000       1.51790000       4.42360000
