14
Properties=species:S:1:pos:R:3 gdb_11167=T pbc="F F F"
N       -0.28910000       1.07590000       0.47760000
C       -0.09340000      -0.10520000       0.07660000
N       -0.97100000      -0.83720000      -0.71500000
C       -0.64230000      -2.25760000      -0.62960000
C        0.87630000      -2.12990000      -0.34610000
O        1.01170000      -0.87540000       0.32340000
C       -1.37630000      -2.97840000       0.41380000
C       -1.99540000      -3.56030000       1.26370000
H        0.51720000       1.41270000       0.99850000
H       -1.93870000      -0.55850000      -0.65150000
H       -0.80760000      -2.74980000      -1.59390000
H        1.25870000      -2.92050000       0.29970000
H        1.43970000      -2.10750000      -1.28560000
H       -2.53980000      -4.07270000       2.01850000
