17
Properties=species:S:1:pos:R:3 gdb_7059=T pbc="F F F"
C       -0.05800000       1.58590000       0.02790000
C       -0.01300000       0.05580000       0.00980000
C        0.67520000      -0.48880000      -1.26570000
C       -0.02270000      -0.13190000      -2.49400000
C       -0.61610000       0.16360000      -3.49650000
C        0.72250000      -0.51060000       1.24800000
C        0.07620000      -0.15270000       2.50840000
N       -0.44910000       0.13510000       3.49670000
H        0.95510000       2.00590000       0.02210000
H       -0.58360000       1.96290000      -0.85260000
H       -0.57100000       1.95350000       0.92070000
H       -1.03920000      -0.32850000       0.02530000
H        1.70670000      -0.11150000      -1.30690000
H        0.75170000      -1.58210000      -1.20110000
H       -1.13220000       0.42030000      -4.38840000
H        0.77840000      -1.60390000       1.19080000
H        1.75570000      -0.14140000       1.27090000
