16
Properties=species:S:1:pos:R:3 gdb_54073=T pbc="F F F"
N       -0.07150000       1.38060000       0.40980000
C        0.01550000       0.16520000      -0.17600000
O        0.96270000      -0.20140000      -0.84580000
C       -1.20980000      -0.76780000      -0.00840000
C       -0.72370000      -2.22800000       0.11510000
C        0.03350000      -2.72620000      -1.10700000
O        0.87830000      -3.57950000      -1.05890000
C       -2.11310000      -0.39090000       1.07180000
C       -2.84300000      -0.07680000       1.97500000
H        0.71430000       2.00530000       0.33350000
H       -0.82960000       1.60270000       1.03310000
H       -1.75580000      -0.67520000      -0.95980000
H       -0.10000000      -2.36950000       1.00090000
H       -1.60400000      -2.87420000       0.22880000
H       -0.30870000      -2.29830000      -2.07500000
H       -3.49910000       0.18550000       2.76840000
