12
Properties=species:S:1:pos:R:3 gdb_52506=T pbc="F F F"
C        0.07970000       1.44270000       0.00930000
C        0.03740000      -0.00700000       0.00160000
C       -0.00760000      -1.21370000      -0.00470000
C       -0.06070000      -2.64880000      -0.01210000
O       -1.08530000      -3.30110000      -0.00600000
C        1.24300000      -3.29890000      -0.02780000
C        2.31150000      -3.86640000      -0.04090000
C        3.52010000      -4.49900000      -0.05550000
N        4.55130000      -5.03360000      -0.06790000
H        1.11010000       1.81160000       0.00180000
H       -0.43700000       1.84640000      -0.86800000
H       -0.42070000       1.83660000       0.90040000
