17
Properties=species:S:1:pos:R:3 gdb_126007=T pbc="F F F"
C       -0.19080000       1.57410000      -0.02370000
C        0.04170000       0.06300000       0.04980000
C        0.88950000      -0.49240000      -1.15530000
N        1.75850000      -1.59530000      -0.61820000
C        1.81200000      -1.32590000       0.74240000
C        0.88090000      -0.43200000       1.19500000
N        0.95620000      -0.35200000       2.54380000
N        1.90530000      -1.14250000       2.96040000
N        2.43700000      -1.76980000       1.84330000
H        0.76070000       2.11550000      -0.03370000
H       -0.75150000       1.84480000      -0.92480000
H       -0.76130000       1.91510000       0.84470000
H       -0.93570000      -0.43910000       0.05650000
H        0.26490000      -0.87650000      -1.96490000
H        1.51450000       0.31680000      -1.55620000
H        2.64610000      -1.67930000      -1.09830000
H        3.19290000      -2.42230000       1.96480000
