13
Properties=species:S:1:pos:R:3 gdb_25111=T pbc="F F F"
N        0.01110000       1.29920000      -0.55710000
C       -0.01110000       0.12660000      -0.10530000
O        1.20380000      -0.58860000       0.03360000
C        1.50670000      -1.35250000       1.10300000
N        0.83330000      -1.71770000       2.11240000
C       -0.54100000      -1.53190000       2.29970000
N       -1.11440000      -1.67570000       3.42830000
C       -1.44140000      -1.25640000       1.14090000
N       -1.20270000      -0.54780000       0.11340000
H        0.96990000       1.63230000      -0.65180000
H        2.54930000      -1.65480000       1.02360000
H       -0.40980000      -1.85620000       4.14890000
H       -2.43460000      -1.69690000       1.23110000
