21
Properties=species:S:1:pos:R:3 gdb_122099=T pbc="F F F"
C        0.26820000       0.45370000       1.57740000
O        0.20090000      -0.82220000       0.98990000
C        0.78920000      -0.86610000      -0.29220000
C        0.69800000      -2.30000000      -0.80020000
C        1.21740000      -2.44660000      -2.23480000
O        2.58020000      -2.04700000      -2.23740000
C        3.14650000      -1.93770000      -3.52680000
C        1.04120000      -3.81940000      -2.73010000
C        0.89960000      -4.94470000      -3.12860000
H        1.30900000       0.79250000       1.70370000
H       -0.26530000       1.20990000       0.97880000
H       -0.20310000       0.38750000       2.56120000
H        0.26110000      -0.18100000      -0.98040000
H        1.83900000      -0.54040000      -0.25270000
H        1.27240000      -2.96160000      -0.14500000
H       -0.34490000      -2.62950000      -0.76730000
H        0.64320000      -1.77050000      -2.89430000
H        3.14640000      -2.90060000      -4.05450000
H        2.60740000      -1.20110000      -4.14290000
H        4.17710000      -1.60160000      -3.39310000
H        0.77170000      -5.93830000      -3.48150000
