16
Properties=species:S:1:pos:R:3 gdb_29747=T pbc="F F F"
C       -0.00760000       1.44270000       0.02290000
N        0.02500000      -0.01010000       0.01150000
C        0.04950000      -0.77720000      -1.10580000
O        0.04370000      -0.16040000      -2.30760000
C        0.07730000      -2.12250000      -0.76060000
C        0.06880000      -2.16470000       0.64420000
C        0.03650000      -0.86250000       1.12410000
C        0.01700000      -0.40070000       2.49010000
O        0.02680000      -1.12920000       3.46600000
H        0.86920000       1.84820000       0.53570000
H       -0.00740000       1.79600000      -1.00760000
H       -0.90950000       1.80850000       0.52180000
H        0.06400000      -0.83160000      -2.99670000
H        0.10040000      -2.95220000      -1.45020000
H        0.08410000      -3.03910000       1.27570000
H       -0.00860000       0.70610000       2.61430000
