17
Properties=species:S:1:pos:R:3 gdb_110751=T pbc="F F F"
C       -0.32830000       1.03600000      -0.07280000
O        0.60190000      -0.01600000       0.11850000
C        0.93500000      -0.67230000      -1.06100000
C        1.43080000      -2.06360000      -1.00580000
C        0.64350000      -2.86160000       0.03920000
C       -0.60180000      -2.64270000      -0.84800000
O       -1.59930000      -3.29570000      -1.02790000
C        0.03290000      -1.65430000      -1.75390000
O       -0.33660000      -1.46750000      -3.05380000
H        0.07080000       1.80870000      -0.74610000
H       -1.27520000       0.66540000      -0.48820000
H       -0.51380000       1.47930000       0.90750000
H        1.43620000      -0.03690000      -1.79750000
H        2.35280000      -2.38420000      -1.47190000
H        0.89860000      -3.92210000       0.09290000
H        0.61740000      -2.42640000       1.03870000
H       -0.82920000      -2.25490000      -3.32410000
