17
Properties=species:S:1:pos:R:3 gdb_108357=T pbc="F F F"
O        0.00780000       1.40920000      -0.20010000
C        0.02640000       0.01370000       0.07030000
C       -1.39270000      -0.48340000       0.02030000
C       -1.66940000      -2.00450000      -0.06880000
O       -2.46550000      -1.83680000      -1.27010000
C       -2.27940000      -0.41390000      -1.24660000
C       -3.33160000       0.40310000      -0.43850000
O       -3.70520000      -0.37300000       0.70350000
C       -2.47750000       0.35100000       0.76360000
H        0.90860000       1.74110000      -0.14540000
H        0.63460000      -0.53060000      -0.66950000
H        0.45650000      -0.19370000       1.06520000
H       -0.77980000      -2.61540000      -0.26770000
H       -2.24900000      -2.43710000       0.75090000
H       -1.95600000       0.01910000      -2.19610000
H       -4.04050000       1.14640000      -0.78550000
H       -2.34280000       1.05920000       1.57260000
