13
Properties=species:S:1:pos:R:3 gdb_583=T pbc="F F F"
O        0.16780000       0.50250000      -1.23870000
C        0.12330000       1.34290000      -0.36900000
N        1.18760000       1.76820000       0.37070000
C        2.49080000       1.17990000       0.27050000
C        3.33070000       1.47600000      -0.94140000
C        3.68560000       2.08810000       0.39020000
H       -0.80710000       1.87730000      -0.08520000
H        1.00080000       2.38870000       1.14360000
H        2.57490000       0.18120000       0.69210000
H        3.94830000       0.67560000      -1.33090000
H        2.89570000       2.12130000      -1.69430000
H        3.49560000       3.14810000       0.52100000
H        4.55170000       1.71710000       0.92590000
