16
Properties=species:S:1:pos:R:3 gdb_45892=T pbc="F F F"
O        0.01200000       0.03740000       0.50260000
C        0.03570000       1.16600000       0.10490000
O       -1.19300000       1.79910000      -0.04840000
C       -1.51320000       2.92580000      -0.77020000
N       -0.94370000       3.52560000      -1.71330000
C        0.32310000       3.11290000      -2.29390000
C        1.46210000       2.86460000      -1.31960000
C        1.45260000       3.40670000       0.07100000
C        1.29140000       1.90780000      -0.15170000
H       -2.48400000       3.26850000      -0.41640000
H        0.16520000       2.21150000      -2.90440000
H        0.62920000       3.90360000      -2.98710000
H        2.43010000       2.79440000      -1.80790000
H        2.38800000       3.72350000       0.51690000
H        0.58580000       3.96670000       0.39960000
H        2.14130000       1.28300000       0.09300000
