17
Properties=species:S:1:pos:R:3 gdb_10319=T pbc="F F F"
C       -0.11850000       1.58240000       0.00060000
C        0.04150000       0.06090000       0.03650000
N        0.68840000      -0.48420000      -1.16090000
C        2.05530000      -0.73910000      -1.12070000
N        2.74260000      -0.51990000      -0.07180000
C        0.02940000      -0.70140000      -2.38120000
N       -1.30640000      -0.37680000      -2.39690000
O        0.60260000      -1.11300000      -3.37220000
H        0.86240000       2.05850000      -0.07510000
H       -0.72640000       1.90530000      -0.84910000
H       -0.59780000       1.93150000       0.92070000
H        0.68160000      -0.22370000       0.87290000
H       -0.92100000      -0.44130000       0.18700000
H        2.41520000      -1.12920000      -2.07220000
H        3.71320000      -0.77860000      -0.23490000
H       -1.84550000      -0.31070000      -1.55170000
H       -1.79040000      -0.70290000      -3.21750000
