15
Properties=species:S:1:pos:R:3 gdb_82017=T pbc="F F F"
N       -0.09620000       1.47040000       0.13250000
C       -0.01290000       0.04880000       0.01550000
C       -1.35770000      -0.68020000       0.01460000
O       -2.07380000      -0.20070000      -1.13030000
C       -1.14400000      -1.26040000      -1.32300000
C        0.24490000      -0.61900000      -1.45650000
O        0.34860000       0.25470000      -2.54610000
C        1.32930000      -1.59970000      -1.41960000
N        2.21190000      -2.34610000      -1.36870000
H        0.81380000       1.91270000       0.07080000
H       -0.68480000       1.84300000      -0.60570000
H        0.69020000      -0.36280000       0.74300000
H       -1.93880000      -1.04650000       0.85160000
H       -1.49630000      -2.18030000      -1.77230000
H        1.24180000       0.61670000      -2.56990000
