20
Properties=species:S:1:pos:R:3 gdb_57210=T pbc="F F F"
C        0.16780000       1.47840000      -0.23050000
C       -0.02890000      -0.02600000      -0.03920000
C        0.72950000      -0.53910000       1.19970000
O        0.61880000      -1.86210000       1.41050000
O        1.39260000       0.16230000       1.91660000
C       -1.50200000      -0.45260000       0.00500000
C       -2.39740000       0.28020000       0.98200000
C       -2.09690000      -1.05300000      -1.21640000
N       -1.65910000      -1.92510000      -0.10730000
H       -0.03390000      -2.22710000       0.77330000
H       -2.46110000      -2.23940000       0.43260000
H        1.22550000       1.70440000      -0.37830000
H       -0.39080000       1.83380000      -1.10220000
H       -0.15790000       2.03690000       0.64990000
H        0.41860000      -0.55460000      -0.89140000
H       -2.47020000       1.34300000       0.73490000
H       -3.41010000      -0.13530000       0.96770000
H       -2.01010000       0.20230000       2.00390000
H       -3.16600000      -0.94550000      -1.37650000
H       -1.50930000      -1.13610000      -2.12610000
