17
Properties=species:S:1:pos:R:3 gdb_67094=T pbc="F F F"
C       -0.04940000       1.52390000      -0.07870000
C       -0.09730000       0.02790000      -0.09010000
C        0.81750000      -0.96070000      -0.85670000
O        1.88500000      -0.94150000       0.21360000
C        0.61550000      -0.93710000       0.91350000
C       -0.14400000      -0.91120000       2.22000000
C       -1.40490000      -0.91220000       1.74920000
C       -1.30000000      -0.94020000       0.19990000
C       -0.10230000      -1.90600000      -0.06070000
H        0.99060000       1.86610000      -0.07900000
H       -0.54970000       1.94920000      -0.95520000
H       -0.54490000       1.91420000       0.81710000
H        1.18310000      -0.98240000      -1.88180000
H        0.22600000      -0.88770000       3.23310000
H       -2.32400000      -0.89690000       2.31780000
H       -2.22120000      -0.95140000      -0.38230000
H       -0.06590000      -2.99410000      -0.00720000
