17
Properties=species:S:1:pos:R:3 gdb_114350=T pbc="F F F"
O       -0.30000000       1.60470000       0.01470000
C       -0.11520000       0.21220000      -0.14000000
C       -1.43870000      -0.53860000      -0.07560000
O       -2.12200000      -0.14860000       1.11050000
C       -3.49560000      -0.06870000       0.80170000
C       -3.93290000       1.16770000       0.01990000
O       -3.13090000       2.28470000      -0.10360000
C       -3.59670000      -0.12230000      -0.69940000
O       -2.26680000      -0.16300000      -1.16790000
H       -0.76050000       1.72780000       0.85550000
H        0.34110000       0.04860000      -1.12010000
H        0.55710000      -0.19910000       0.62700000
H       -1.28120000      -1.63090000      -0.08140000
H       -4.14790000      -0.59620000       1.48890000
H       -4.98610000       1.42460000       0.09940000
H       -2.30400000       2.02670000      -0.54260000
H       -4.30480000      -0.71290000      -1.27090000
