16
Properties=species:S:1:pos:R:3 gdb_50438=T pbc="F F F"
N        0.10710000       1.24140000      -0.32810000
C       -0.03550000      -0.00500000      -0.15070000
N       -1.24610000      -0.66790000       0.07830000
C       -1.16430000      -2.12980000       0.28130000
C       -2.41140000      -2.82310000      -0.18390000
C       -3.55700000      -2.14720000      -0.15400000
N       -3.57620000      -0.81770000       0.25030000
C       -2.45890000       0.01660000       0.26920000
O       -2.57620000       1.20720000       0.42140000
H        1.09190000       1.44240000      -0.49750000
H        0.78580000      -0.73220000      -0.17480000
H       -0.29590000      -2.49230000      -0.27580000
H       -0.96830000      -2.34910000       1.34460000
H       -2.36480000      -3.85470000      -0.50290000
H       -4.51570000      -2.56510000      -0.43630000
H       -4.44250000      -0.30570000       0.28880000
