19
Properties=species:S:1:pos:R:3 gdb_70911=T pbc="F F F"
C       -0.04780000       1.50830000      -0.01560000
C        0.03150000       0.00900000      -0.02810000
C        0.89240000      -0.82530000      -0.98530000
C       -0.08050000      -2.02700000      -0.76700000
O       -0.45060000      -2.82300000      -1.84910000
C        0.40980000      -2.88250000       0.40230000
O        0.50630000      -1.96530000       1.49310000
C       -0.30940000      -0.85460000       1.17190000
C       -1.08950000      -1.04510000      -0.08160000
H        0.90410000       1.95060000       0.30140000
H       -0.28350000       1.90450000      -1.01050000
H       -0.82260000       1.86060000       0.67360000
H        0.80940000      -0.44680000      -2.01080000
H        1.95000000      -0.97530000      -0.74020000
H       -0.70970000      -2.24810000      -2.57620000
H       -0.30930000      -3.68560000       0.62080000
H        1.39600000      -3.32110000       0.22170000
H       -0.73420000      -0.37230000       2.04500000
H       -2.16260000      -0.98050000      -0.21430000
