22
Properties=species:S:1:pos:R:3 gdb_119477=T pbc="F F F"
C        0.06820000       1.49580000       0.18640000
O       -0.12260000       0.10230000       0.14570000
C        0.76960000      -0.59640000       0.99120000
C        0.52920000      -2.06520000       0.82700000
C       -0.44530000      -2.82500000       1.63050000
N        0.99370000      -3.06480000       1.87430000
C        1.49860000      -3.94120000       0.74300000
C        1.00930000      -5.37790000       0.71440000
C        1.03380000      -2.92080000      -0.33560000
H        1.08400000       1.78010000      -0.13250000
H       -0.65530000       1.94590000      -0.49770000
H       -0.09720000       1.90260000       1.19700000
H        1.81410000      -0.34820000       0.73260000
H        0.62080000      -0.31440000       2.04690000
H       -0.92380000      -2.31370000       2.46020000
H       -1.05750000      -3.59210000       1.16420000
H        2.58940000      -3.93960000       0.82460000
H       -0.07560000      -5.45020000       0.59330000
H        1.47040000      -5.91610000      -0.12090000
H        1.28280000      -5.89220000       1.64170000
H        0.27290000      -3.24980000      -1.04920000
H        1.86060000      -2.47100000      -0.88920000
