19
Properties=species:S:1:pos:R:3 gdb_125608=T pbc="F F F"
C        0.13760000       1.48240000       0.01220000
C        0.09050000      -0.00630000      -0.10670000
C        0.01140000      -0.83300000      -1.21890000
C       -0.01670000      -0.40360000      -2.65400000
O        1.05010000       0.48410000      -3.00080000
C       -0.01310000      -2.15370000      -0.69250000
C       -0.09860000      -3.45110000      -1.43530000
N        0.04510000      -2.14710000       0.63690000
N        0.10610000      -0.83720000       0.96330000
H        0.79180000       1.80120000       0.83080000
H        0.51800000       1.90620000      -0.91890000
H       -0.85600000       1.90750000       0.19950000
H       -0.01410000      -1.29160000      -3.30350000
H       -0.92890000       0.15630000      -2.89060000
H        1.86520000       0.07360000      -2.69270000
H        0.70040000      -3.54670000      -2.17910000
H       -0.01330000      -4.28170000      -0.73150000
H       -1.05020000      -3.55270000      -1.96930000
H        0.17710000      -0.58110000       1.93380000
