21
Properties=species:S:1:pos:R:3 gdb_66170=T pbc="F F F"
C       -0.44320000       1.57870000      -0.00860000
C       -0.00780000       0.11790000      -0.01590000
C       -1.19140000      -0.81580000      -0.25390000
O       -1.75160000      -0.60680000      -1.55920000
C       -3.04920000      -0.26880000      -1.65910000
O       -3.59210000      -0.08230000      -2.70620000
C        1.21000000      -0.25130000      -0.92340000
C        1.81350000      -1.07590000       0.24480000
C        0.81740000      -0.38430000       1.21460000
H        0.41050000       2.23560000       0.18400000
H       -0.87580000       1.86910000      -0.97150000
H       -1.19170000       1.76890000       0.77070000
H       -0.87850000      -1.86430000      -0.20800000
H       -1.96370000      -0.65770000       0.51190000
H       -3.54740000      -0.18620000      -0.67270000
H        0.98400000      -0.77440000      -1.85530000
H        1.81080000       0.63070000      -1.16110000
H        1.62620000      -2.14830000       0.14510000
H        2.87680000      -0.93790000       0.45070000
H        1.27040000       0.45040000       1.75600000
H        0.29510000      -1.01720000       1.93930000
