20
Properties=species:S:1:pos:R:3 gdb_12285=T pbc="F F F"
C        0.32410000       1.39790000       0.17290000
C        0.05890000      -0.10370000       0.02610000
C        0.52860000      -0.63360000      -1.31850000
O        1.96320000      -0.52210000      -1.49520000
C        2.10610000      -1.93230000      -1.79440000
C        3.11100000      -2.62720000      -0.89730000
C        0.58880000      -2.17010000      -1.54640000
O        0.19630000      -3.02830000      -0.50630000
H        1.38890000       1.61060000       0.04260000
H       -0.22750000       1.97060000      -0.58060000
H        0.01920000       1.75960000       1.15920000
H        0.57230000      -0.64150000       0.83370000
H       -1.01120000      -0.32070000       0.13130000
H        0.00180000      -0.10360000      -2.12610000
H        2.38870000      -2.07280000      -2.84720000
H        2.85680000      -2.51630000       0.16180000
H        3.16190000      -3.69500000      -1.13170000
H        4.10370000      -2.19160000      -1.04520000
H        0.04160000      -2.51460000      -2.42580000
H        0.63730000      -2.75780000       0.30520000
