19
Properties=species:S:1:pos:R:3 gdb_96017=T pbc="F F F"
O       -0.04400000       1.49580000       0.18650000
C        0.05420000       0.09100000       0.04760000
C        0.51960000      -0.61250000       1.33690000
C       -0.80660000      -0.94450000       2.01600000
O       -1.67120000      -1.32700000       0.94530000
C       -1.30970000      -0.61910000      -0.23990000
C       -2.40300000       0.34870000      -0.64780000
C       -3.75530000       0.25220000      -0.08950000
O       -2.83890000       1.25460000       0.37560000
H       -0.83950000       1.70390000       0.69160000
H        0.75630000      -0.06840000      -0.77470000
H        1.05590000      -1.53610000       1.09490000
H        1.17480000       0.03640000       1.92090000
H       -0.75460000      -1.78220000       2.71630000
H       -1.21560000      -0.07240000       2.54730000
H       -1.19030000      -1.35680000      -1.04580000
H       -2.26710000       0.81030000      -1.62580000
H       -4.59970000       0.63730000      -0.65820000
H       -3.96750000      -0.53890000       0.62310000
