13
Properties=species:S:1:pos:R:3 gdb_3800=T pbc="F F F"
C        0.01130000       1.41270000       0.00910000
O        0.03440000      -0.00270000       0.00380000
C       -1.18110000      -0.60350000       0.01180000
C       -1.37300000      -1.97280000       0.00880000
N       -2.72050000      -2.14940000       0.01920000
N       -3.41440000      -1.00500000       0.02870000
C       -2.48280000      -0.04860000       0.02430000
H        1.05210000       1.74050000       0.00170000
H       -0.49970000       1.80900000      -0.87860000
H       -0.48500000       1.80260000       0.90780000
H       -0.67310000      -2.79110000       0.00030000
H       -3.22020000      -3.02170000       0.02040000
H       -2.77960000       0.98820000       0.03030000
