20
Properties=species:S:1:pos:R:3 gdb_113305=T pbc="F F F"
C       -0.05040000       1.46240000      -0.53860000
C        0.00600000       0.13520000       0.22480000
C       -1.34610000      -0.56680000       0.27040000
N       -1.73730000      -1.29200000      -0.96910000
C       -1.51010000      -2.06140000       0.26430000
C       -0.38170000      -3.06640000       0.20240000
O       -0.73690000      -4.15490000      -0.63430000
C       -2.38750000       0.16730000       0.95200000
C       -3.25050000       0.78980000       1.51400000
H        0.93530000       1.93580000      -0.56510000
H       -0.37700000       1.29650000      -1.56970000
H       -0.74990000       2.15980000      -0.06840000
H        0.73000000      -0.52750000      -0.25470000
H        0.34890000       0.30220000       1.25260000
H       -2.73290000      -1.17380000      -1.13700000
H       -2.39530000      -2.43060000       0.77820000
H        0.54730000      -2.59180000      -0.13840000
H       -0.19830000      -3.48750000       1.19620000
H       -0.94180000      -3.77300000      -1.49600000
H       -4.01350000       1.33420000       2.01320000
