19
Properties=species:S:1:pos:R:3 gdb_63675=T pbc="F F F"
C        0.96190000       1.60020000       0.47530000
C        0.27710000       0.25720000       0.40660000
O       -1.12570000       0.30120000       0.34280000
C        0.96290000      -0.89700000      -0.31000000
C        0.79470000      -0.92060000       1.18450000
O        1.96600000      -0.83330000       1.94230000
C        1.75200000      -0.77280000       3.34440000
C        1.15200000       0.47120000       3.82970000
C        0.66430000       1.48540000       4.25160000
H        2.03020000       1.48250000       0.67050000
H        0.84230000       2.14670000      -0.46840000
H        0.53080000       2.19880000       1.28200000
H       -1.36930000       0.64770000      -0.52330000
H        0.35280000      -1.57780000      -0.89300000
H        1.96680000      -0.72800000      -0.68500000
H        0.03800000      -1.59130000       1.59140000
H        1.13050000      -1.62300000       3.66780000
H        2.74160000      -0.90360000       3.79450000
H        0.22880000       2.37990000       4.62330000
