17
Properties=species:S:1:pos:R:3 gdb_28957=T pbc="F F F"
C       -0.03670000       1.52140000      -0.00510000
C       -0.01020000       0.01560000      -0.00740000
C       -0.02400000      -0.70250000      -1.20260000
C        0.00080000      -2.09500000      -1.21670000
C        0.04030000      -2.80120000      -0.01740000
C        0.05470000      -2.10900000       1.18640000
C        0.03000000      -0.70610000       1.20690000
C        0.04560000      -0.01900000       2.45570000
C        0.05900000       0.56290000       3.51070000
H        0.84910000       1.93330000       0.49060000
H       -0.07440000       1.91530000      -1.02370000
H       -0.90430000       1.90260000       0.54420000
H       -0.05490000      -0.15650000      -2.14060000
H       -0.01090000      -2.62570000      -2.16290000
H        0.05970000      -3.88560000      -0.01840000
H        0.08530000      -2.64380000       2.12900000
H        0.07160000       1.07300000       4.44180000
