21
Properties=species:S:1:pos:R:3 gdb_119618=T pbc="F F F"
C        0.02190000       1.38500000      -0.32990000
O        0.00900000      -0.01810000      -0.23210000
C       -1.27070000      -0.53460000       0.08210000
C       -1.17950000      -2.02630000       0.20240000
C       -1.30080000      -2.90630000      -1.03410000
C       -2.36660000      -2.93590000       0.03120000
O       -2.34870000      -3.96000000       0.98860000
C       -1.02710000      -4.03110000       1.52770000
C       -0.40570000      -2.62550000       1.37060000
H        1.04450000       1.68830000      -0.56760000
H       -0.64940000       1.74720000      -1.12550000
H       -0.28070000       1.86570000       0.61450000
H       -1.63060000      -0.09630000       1.03050000
H       -1.99760000      -0.25490000      -0.70030000
H       -1.54570000      -2.40580000      -1.96520000
H       -0.63960000      -3.75840000      -1.14820000
H       -3.37310000      -2.58890000      -0.17370000
H       -1.10740000      -4.36090000       2.56700000
H       -0.43800000      -4.78110000       0.98200000
H        0.67370000      -2.67080000       1.20470000
H       -0.58190000      -2.01570000       2.26410000
