14
Properties=species:S:1:pos:R:3 gdb_3564=T pbc="F F F"
C       -0.07860000       1.61310000      -0.03360000
C        1.44790000       1.37470000      -0.01860000
O        1.19930000       0.20000000       0.83660000
C       -0.00030000       0.07020000      -0.01010000
C        0.64680000      -0.30610000      -1.36450000
N        0.65110000       0.78790000      -2.36580000
C        1.74600000       0.68410000      -1.37090000
H       -0.41670000       1.99480000       0.92870000
H       -0.54010000       2.12010000      -0.87780000
H        2.17550000       2.07350000       0.39150000
H       -0.76850000      -0.57820000       0.40870000
H        0.75890000      -1.33870000      -1.67070000
H        0.98490000       0.41160000      -3.25230000
H        2.75930000       0.46320000      -1.68240000
