23
Properties=species:S:1:pos:R:3 gdb_122818=T pbc="F F F"
C       -0.03690000       1.60980000       0.02360000
C       -0.01480000       0.07960000       0.06790000
C       -1.40970000      -0.54750000      -0.03110000
C       -1.38770000      -2.07830000       0.00960000
C       -2.78110000      -2.70080000      -0.08640000
C       -2.76740000      -4.22460000      -0.13170000
O       -1.77110000      -4.86560000      -0.35390000
C       -4.12000000      -4.88710000       0.12360000
O       -4.02860000      -6.26770000      -0.10650000
H        0.97240000       2.02680000       0.09640000
H       -0.48000000       1.97270000      -0.91060000
H       -0.62750000       2.02180000       0.84960000
H        0.61090000      -0.30310000      -0.74890000
H        0.46550000      -0.25400000       0.99720000
H       -2.03720000      -0.16500000       0.78670000
H       -1.89190000      -0.21280000      -0.96080000
H       -0.77080000      -2.47000000      -0.80620000
H       -0.90560000      -2.41880000       0.93430000
H       -3.42390000      -2.37030000       0.74130000
H       -3.29080000      -2.35640000      -0.99920000
H       -4.40320000      -4.64670000       1.16430000
H       -4.86850000      -4.39320000      -0.52060000
H       -4.88410000      -6.65990000       0.09020000
