18
Properties=species:S:1:pos:R:3 gdb_120721=T pbc="F F F"
N        0.71040000      -0.30960000       0.44760000
C       -0.14700000       0.57660000      -0.13090000
O        0.18300000       1.62730000      -0.64310000
C       -1.59780000       0.15230000      -0.09270000
O       -1.91380000      -1.11750000       0.48850000
C       -2.38640000       0.06690000       1.15310000
C       -1.85970000       0.36610000       2.53320000
C       -2.46730000      -0.56280000       3.59280000
O       -2.06580000      -0.22100000       4.90750000
H        1.69960000      -0.14860000       0.35060000
H        0.37210000      -1.22500000       0.69550000
H       -2.12500000       0.39370000      -1.01420000
H       -3.46280000       0.21010000       1.03730000
H       -0.76830000       0.27880000       2.54490000
H       -2.10840000       1.40290000       2.78930000
H       -3.55960000      -0.47650000       3.58480000
H       -2.22390000      -1.60870000       3.35130000
H       -1.11550000      -0.35890000       4.97290000
