17
Properties=species:S:1:pos:R:3 gdb_49175=T pbc="F F F"
O       -0.11390000      -0.00610000      -0.01730000
C       -0.00870000       1.20000000       0.05180000
C        1.26150000       1.92740000       0.00360000
C        1.27660000       3.27300000       0.03770000
C        2.52930000       4.03170000      -0.02880000
C        3.65720000       3.66620000       0.95790000
C        3.73340000       3.19910000      -0.45630000
O        3.54130000       1.88110000      -0.84920000
C        2.54460000       1.14840000      -0.13820000
H       -0.90480000       1.85230000       0.16190000
H        0.33590000       3.81880000       0.07930000
H        2.46580000       5.06770000      -0.34040000
H        4.31830000       4.46960000       1.26330000
H        3.40680000       2.96510000       1.74480000
H        4.45730000       3.66720000      -1.11380000
H        2.92980000       0.83120000       0.84310000
H        2.36170000       0.23960000      -0.71560000
