21
Properties=species:S:1:pos:R:3 gdb_72220=T pbc="F F F"
C        0.01440000       1.56490000       0.02040000
C       -0.00940000       0.05340000       0.01130000
C        0.44290000      -0.66190000      -1.29940000
C       -0.83490000      -1.55900000      -1.28780000
C       -0.64600000      -3.00220000      -0.83820000
O       -0.31080000      -2.95240000       0.54770000
C       -0.72290000      -1.71200000       1.11270000
C        0.44160000      -0.69710000       1.29290000
C       -1.32110000      -0.82370000      -0.01260000
H        1.04600000       1.93920000       0.02300000
H       -0.48430000       1.97990000      -0.86310000
H       -0.48520000       1.96870000       0.90840000
H        0.46280000       0.01930000      -2.15450000
H        1.40190000      -1.18810000      -1.25530000
H       -1.45770000      -1.47530000      -2.17980000
H       -1.57310000      -3.57910000      -0.98630000
H        0.16350000      -3.51960000      -1.36640000
H       -1.33360000      -1.90620000       1.99900000
H        1.44690000      -1.12710000       1.31100000
H        0.29940000      -0.07870000       2.18530000
H       -2.33850000      -0.44390000       0.07290000
