20
Properties=species:S:1:pos:R:3 gdb_120595=T pbc="F F F"
C        0.09050000       1.34000000       0.20470000
O        0.01280000      -0.06440000       0.16490000
C       -1.28000000      -0.53160000      -0.15810000
C       -1.22990000      -2.03770000      -0.16280000
N       -1.60080000      -2.73960000       1.06920000
C       -2.45090000      -2.91110000      -0.13710000
C       -3.85970000      -2.35040000      -0.03910000
C       -2.35170000      -4.16310000      -0.84890000
C       -2.29190000      -5.21720000      -1.42600000
H        1.12130000       1.60350000       0.45330000
H       -0.16790000       1.79220000      -0.76670000
H       -0.57940000       1.76570000       0.96860000
H       -2.01640000      -0.17320000       0.57610000
H       -1.58450000      -0.15890000      -1.15230000
H       -0.38740000      -2.42890000      -0.72910000
H       -1.01530000      -3.56030000       1.20190000
H       -3.87440000      -1.44500000       0.56950000
H       -4.25610000      -2.12100000      -1.03280000
H       -4.52170000      -3.08510000       0.42850000
H       -2.23170000      -6.14420000      -1.94050000
