11
Properties=species:S:1:pos:R:3 gdb_895=T pbc="F F F"
O       -0.12050000       1.35530000       0.01120000
C        0.07120000       0.01760000       0.00260000
C        1.16480000      -0.77220000      -0.00800000
N        0.68430000      -2.09860000      -0.01280000
C       -0.69510000      -2.14330000      -0.00520000
O       -1.43300000      -3.10820000      -0.00650000
N       -1.05170000      -0.78940000       0.00440000
H        0.73660000       1.79350000       0.00920000
H        2.21230000      -0.53130000      -0.01260000
H        1.24140000      -2.93330000      -0.02050000
H       -2.00470000      -0.47160000       0.01150000
