17
Properties=species:S:1:pos:R:3 gdb_125571=T pbc="F F F"
C        0.11290000       1.49470000      -0.16000000
C        0.00520000       0.01810000       0.05720000
N       -0.28030000      -0.79690000      -0.95800000
N       -0.31280000      -2.02790000      -0.40990000
C       -0.03820000      -2.02840000       0.91790000
C        0.17410000      -0.70880000       1.26240000
C       -0.03510000      -3.28210000       1.69460000
C       -1.20550000      -4.18060000       1.73440000
O       -0.07500000      -4.48600000       0.91600000
H        1.10080000       1.87060000       0.12770000
H       -0.05070000       1.72670000      -1.21440000
H       -0.62780000       2.04290000       0.43260000
H       -0.42730000      -2.84380000      -0.98820000
H        0.40770000      -0.32300000       2.24210000
H        0.65070000      -3.30840000       2.54010000
H       -1.35090000      -4.83620000       2.59150000
H       -2.10830000      -3.89440000       1.19820000
