16
Properties=species:S:1:pos:R:3 gdb_43954=T pbc="F F F"
O       -0.24390000      -0.04990000      -0.42160000
C       -0.08090000       1.09560000      -0.14750000
N       -1.01420000       2.18190000      -0.00120000
C       -0.01040000       2.95160000       0.74990000
C        0.95410000       4.19050000       0.67950000
C        1.97540000       3.02800000       1.08620000
O        1.58640000       2.69870000       2.39890000
C        0.16280000       2.55420000       2.23610000
C        1.08700000       2.14650000       0.09190000
H       -1.96430000       2.01730000       0.31470000
H        1.10470000       4.59380000      -0.32030000
H        0.83730000       4.98310000       1.42300000
H        3.05650000       3.12190000       1.00670000
H       -0.36800000       3.21050000       2.93460000
H       -0.12730000       1.51260000       2.42320000
H        1.27210000       2.54070000      -0.91140000
