21
Properties=species:S:1:pos:R:3 gdb_95084=T pbc="F F F"
C        0.05200000       1.53570000      -0.07440000
C       -0.01050000       0.02010000       0.05660000
O        0.54300000      -0.51030000      -1.14930000
C        1.07030000      -1.82890000      -1.08130000
C        1.67760000      -2.11960000       0.29340000
C        2.22070000      -0.79070000       0.89540000
C        0.75050000      -0.52640000       1.29380000
O        0.55320000       0.24540000       2.45180000
C        0.55000000      -2.06270000       1.35770000
H        1.09060000       1.87800000      -0.10050000
H       -0.43570000       1.84240000      -1.00340000
H       -0.44770000       2.02170000       0.76640000
H       -1.06830000      -0.29330000       0.14390000
H        0.29170000      -2.57490000      -1.31280000
H        1.82930000      -1.88260000      -1.87000000
H        2.32670000      -2.99690000       0.27040000
H        2.83160000      -0.96490000       1.78340000
H        2.71100000      -0.08060000       0.22680000
H       -0.38580000       0.23190000       2.66970000
H       -0.43180000      -2.46950000       1.09120000
H        0.87140000      -2.45880000       2.32440000
