18
Properties=species:S:1:pos:R:3 gdb_102196=T pbc="F F F"
O       -0.06510000       1.33450000      -0.04940000
C       -0.05600000      -0.07920000       0.04610000
C       -1.51580000      -0.55630000       0.03200000
C       -1.55150000      -2.10100000      -0.01330000
C       -2.79460000      -2.64260000      -0.55570000
N       -3.77890000      -3.06380000      -0.99160000
C       -2.24630000       0.02510000       1.23200000
C       -3.37090000      -0.60910000       1.92690000
O       -2.05040000      -0.64180000       2.48590000
H        0.81670000       1.66110000       0.14970000
H        0.48500000      -0.52960000      -0.80110000
H        0.42760000      -0.41990000       0.97450000
H       -1.97850000      -0.15220000      -0.87610000
H       -0.72770000      -2.47500000      -0.63120000
H       -1.40090000      -2.49200000       0.99890000
H       -2.15910000       1.10810000       1.29300000
H       -4.08330000       0.01830000       2.46020000
H       -3.76360000      -1.56630000       1.59330000
