20
Properties=species:S:1:pos:R:3 gdb_58611=T pbc="F F F"
C       -0.13800000       1.56760000       0.63060000
C       -0.05230000       0.14650000       0.04590000
C        0.96360000      -0.70480000       0.81430000
C       -1.44660000      -0.46530000       0.00020000
C       -1.74540000      -1.86490000       0.36130000
O       -2.06360000      -0.79770000       1.25970000
C       -2.38630000       0.18390000      -1.01000000
N       -3.68270000       0.23300000      -0.60640000
O       -1.98390000       0.58630000      -2.08560000
H        0.84690000       2.04370000       0.62570000
H       -0.81530000       2.19740000       0.04680000
H       -0.49670000       1.53970000       1.66500000
H        0.26050000       0.22850000      -1.00040000
H        1.16100000      -1.65910000       0.31680000
H        1.91580000      -0.17190000       0.89060000
H        0.61390000      -0.91010000       1.83190000
H       -2.60180000      -2.35940000      -0.09360000
H       -0.94490000      -2.52180000       0.69030000
H       -3.90630000       0.02140000       0.35220000
H       -4.35220000       0.69810000      -1.19620000
