12
Properties=species:S:1:pos:R:3 gdb_129291=T pbc="F F F"
N        0.01090000       1.30550000       0.00980000
C       -0.02070000       0.04390000       0.00260000
O        1.18980000      -0.68340000      -0.00760000
N        1.22610000      -2.06010000      -0.01530000
C        0.08900000      -2.65650000      -0.01260000
C       -1.17290000      -1.93530000      -0.00200000
C       -2.46370000      -2.72560000       0.00050000
O       -3.55280000      -2.22500000       0.00890000
N       -1.22220000      -0.65130000       0.00530000
H        0.97390000       1.64360000       0.00660000
H        0.13300000      -3.74090000      -0.01870000
H       -2.31900000      -3.82800000      -0.00640000
