18
Properties=species:S:1:pos:R:3 gdb_33089=T pbc="F F F"
C        0.00970000       1.52760000      -0.02760000
C       -0.07510000       0.00760000      -0.11260000
N        0.81520000      -0.50590000      -1.13990000
C        0.84490000      -1.86770000      -1.36010000
C        0.42760000      -2.89950000      -0.58140000
O        0.75680000      -4.07910000      -1.26370000
C        1.32640000      -3.64970000      -2.39770000
N        1.68700000      -4.60740000      -3.31290000
N        1.41960000      -2.36060000      -2.53060000
H        1.03400000       1.84840000       0.18290000
H       -0.30570000       1.99280000      -0.96870000
H       -0.64350000       1.90570000       0.76360000
H        0.23000000      -0.43270000       0.84570000
H       -1.11950000      -0.30750000      -0.28180000
H        0.80550000       0.01460000      -2.00680000
H       -0.04460000      -3.01670000       0.37470000
H        1.92550000      -5.50180000      -2.91040000
H        2.36160000      -4.27490000      -3.98560000
