16
Properties=species:S:1:pos:R:3 gdb_6593=T pbc="F F F"
C       -0.14940000       1.40810000       0.01230000
C        0.07660000      -0.06930000      -0.00230000
C        0.67360000      -0.97280000      -1.11420000
C        0.05480000      -1.87760000      -0.01310000
C        0.72470000      -0.98640000       1.06910000
O       -1.11980000      -0.96070000       0.02010000
C       -0.15530000      -3.29350000      -0.01700000
C       -0.30420000      -4.48640000      -0.02080000
H        0.80800000       1.93850000      -0.00120000
H       -0.72890000       1.71620000      -0.86310000
H       -0.69640000       1.70290000       0.91280000
H        0.12790000      -0.97010000      -2.05840000
H        1.75900000      -0.99570000      -1.24020000
H        1.81480000      -1.01040000       1.14370000
H        0.22380000      -0.99580000       2.03770000
H       -0.44220000      -5.53940000      -0.02400000
