14
Properties=species:S:1:pos:R:3 gdb_130643=T pbc="F F F"
O       -0.02430000      -0.02920000       0.00330000
C        0.01420000       1.17250000       0.00860000
C       -1.21430000       2.11890000       0.03170000
C       -0.67270000       3.57070000       0.03120000
N        0.76620000       3.34780000       0.00870000
N        1.79440000       4.19330000      -0.00230000
C        2.83320000       3.34060000      -0.02200000
N        2.51540000       2.02430000      -0.02390000
C        1.18790000       2.06700000      -0.00410000
H       -1.83900000       1.90840000      -0.83990000
H       -1.81300000       1.89930000       0.91920000
H       -0.97720000       4.14510000      -0.84730000
H       -0.95080000       4.13580000       0.92440000
H        3.85040000       3.70320000      -0.03520000
