17
Properties=species:S:1:pos:R:3 gdb_5389=T pbc="F F F"
C        0.02040000       1.44940000       0.10620000
N       -0.12900000       0.02350000      -0.09320000
C        0.55270000      -0.64950000      -1.09810000
C        1.15720000       0.02280000      -2.17190000
C        1.79190000      -0.69500000      -3.18290000
C        1.85030000      -2.08420000      -3.15080000
C        1.25700000      -2.75620000      -2.08130000
C        0.61770000      -2.05460000      -1.07060000
H        1.06840000       1.76870000       0.22200000
H       -0.40860000       2.00640000      -0.73440000
H       -0.52960000       1.73850000       1.00460000
H       -0.24620000      -0.51000000       0.75320000
H        1.13200000       1.10450000      -2.22090000
H        2.25060000      -0.15210000      -4.00360000
H        2.34910000      -2.63510000      -3.93990000
H        1.29240000      -3.84020000      -2.03280000
H        0.15460000      -2.58870000      -0.24510000
