19
Properties=species:S:1:pos:R:3 gdb_117746=T pbc="F F F"
C        0.14630000       1.69980000       0.07870000
C        0.12270000       0.16980000       0.11820000
C        0.63960000      -0.45080000      -1.18520000
C        0.69010000      -1.99910000      -1.13520000
O        1.39970000      -2.48130000      -0.02870000
C       -0.73300000      -2.58130000      -1.11940000
O       -1.61120000      -2.21990000      -1.85750000
C        1.35310000      -2.48970000      -2.42210000
O        2.37330000      -3.13130000      -2.39170000
H        1.16320000       2.07710000      -0.07600000
H       -0.47880000       2.08760000      -0.73310000
H       -0.22570000       2.12250000       1.01680000
H        0.73430000      -0.19670000       0.94840000
H       -0.90170000      -0.17600000       0.30440000
H       -0.00100000      -0.16180000      -2.02570000
H        1.65090000      -0.08050000      -1.39420000
H        2.16870000      -2.95280000      -0.38950000
H       -0.86040000      -3.38750000      -0.36610000
H        0.84830000      -2.20890000      -3.36480000
