18
Properties=species:S:1:pos:R:3 gdb_116705=T pbc="F F F"
C        0.03930000       0.78300000      -1.06580000
C       -0.70840000       0.38120000       0.20770000
N       -1.70930000      -0.67340000       0.12980000
C       -1.92540000      -1.27780000      -0.95590000
N       -2.81600000      -2.36830000      -1.02390000
C       -4.00790000      -2.37020000      -0.21480000
C       -4.10610000      -2.23410000      -1.71310000
C       -4.49580000      -0.96430000      -2.27780000
N       -4.79700000       0.04220000      -2.76140000
H        0.73720000       1.59410000      -0.83810000
H        0.62130000      -0.04790000      -1.47830000
H       -0.64460000       1.14110000      -1.84240000
H        0.01230000       0.07430000       0.97760000
H       -1.21690000       1.25920000       0.62670000
H       -1.43350000      -1.08730000      -1.91330000
H       -4.28150000      -3.32040000       0.23320000
H       -4.19840000      -1.48450000       0.38370000
H       -4.39750000      -3.09290000      -2.31090000
