21
Properties=species:S:1:pos:R:3 gdb_37434=T pbc="F F F"
C       -0.02340000       1.53370000      -0.14070000
C        1.29390000       0.82230000       0.03250000
C        0.00380000       0.03780000       0.04020000
C       -0.20290000      -0.64190000       1.40840000
C        0.99960000      -1.62950000       1.55640000
C        2.32930000      -0.82080000       1.54850000
C        2.00430000       0.70030000       1.39520000
C        1.06080000       1.06170000       2.51560000
C       -0.08000000       0.36790000       2.52240000
H       -0.39800000       2.15750000       0.66190000
H       -0.25060000       1.89750000      -1.13730000
H        1.95130000       0.75350000      -0.82920000
H       -0.24510000      -0.58210000      -0.81610000
H       -1.15210000      -1.18210000       1.44530000
H        0.89510000      -2.20170000       2.48270000
H        0.97680000      -2.34810000       0.73000000
H        2.89350000      -0.98640000       2.47080000
H        2.97070000      -1.13560000       0.71820000
H        2.92090000       1.29480000       1.42110000
H        1.31460000       1.82200000       3.24640000
H       -0.86540000       0.49630000       3.25940000
