16
Properties=species:S:1:pos:R:3 gdb_29419=T pbc="F F F"
N        0.12870000       1.48440000       0.07610000
C        0.07430000       0.08610000       0.02430000
C       -1.01650000      -0.72810000       0.10720000
O       -0.62690000      -2.04440000       0.10210000
C        0.72630000      -2.06190000       0.00370000
C        1.38190000      -3.40010000       0.02030000
C        1.54100000      -3.93890000       1.44010000
O        2.55300000      -4.42550000       1.86850000
C        1.21160000      -0.79030000      -0.03860000
H        0.85690000       1.87010000      -0.51080000
H       -0.75290000       1.92540000      -0.15080000
H       -2.07580000      -0.54840000       0.17480000
H        0.76060000      -4.11610000      -0.53500000
H        2.36790000      -3.36510000      -0.44780000
H        0.62690000      -3.84320000       2.06680000
H        2.24980000      -0.50180000      -0.10240000
