20
Properties=species:S:1:pos:R:3 gdb_67559=T pbc="F F F"
C        0.00440000       1.48820000      -0.02030000
C        0.09060000      -0.01770000       0.04750000
C        0.56250000      -0.71940000      -1.21980000
C        1.76640000      -1.62240000      -1.10890000
C        0.38740000      -2.16550000      -0.82460000
C       -0.14240000      -1.97040000       0.57740000
C        0.58060000      -0.80610000       1.30590000
C       -0.77660000      -0.50380000       1.94460000
N       -1.19140000      -0.81600000       0.50820000
H        0.98780000       1.90660000      -0.26050000
H       -0.68840000       1.78840000      -0.81390000
H       -0.33550000       1.94470000       0.91190000
H        0.25680000      -0.33260000      -2.18470000
H        2.22330000      -1.93200000      -2.04330000
H        2.47250000      -1.48870000      -0.29630000
H       -0.06180000      -2.90230000      -1.47840000
H       -0.47430000      -2.84010000       1.14670000
H        1.57590000      -0.80120000       1.76740000
H       -1.16320000      -1.22360000       2.67180000
H       -0.99690000       0.51490000       2.26900000
