22
Properties=species:S:1:pos:R:3 gdb_122573=T pbc="F F F"
C        0.00690000       1.54990000      -0.05820000
C        0.09880000       0.02190000      -0.02850000
C        0.70810000      -0.51720000       1.27010000
C        0.80350000      -2.04560000       1.30340000
C        1.41720000      -2.60100000       2.58220000
C        1.59870000      -4.14420000       2.60520000
N        3.05210000      -4.36710000       2.70540000
C        3.56890000      -3.21230000       2.76030000
O        2.78550000      -2.10980000       2.72470000
H        0.99710000       2.00720000       0.04550000
H       -0.42810000       1.90620000      -0.99710000
H       -0.61640000       1.92520000       0.76110000
H       -0.90190000      -0.40900000      -0.16730000
H        0.69810000      -0.32610000      -0.88030000
H        1.71020000      -0.09510000       1.41080000
H        0.10830000      -0.17220000       2.12420000
H       -0.19740000      -2.48620000       1.19630000
H        1.39410000      -2.40610000       0.45050000
H        0.86690000      -2.23590000       3.45620000
H        1.09260000      -4.61570000       3.45370000
H        1.21290000      -4.61390000       1.69290000
H        4.63040000      -3.00320000       2.83850000
