23
Properties=species:S:1:pos:R:3 gdb_109303=T pbc="F F F"
C       -0.05170000       1.55580000      -0.02290000
C       -0.00020000       0.01970000       0.02630000
C       -1.43920000      -0.54090000       0.07720000
C        0.77900000      -0.56730000      -1.18850000
C        1.55870000      -1.78910000      -0.64850000
C        1.64210000      -1.50090000       0.82970000
C        0.81820000      -0.52130000       1.20080000
C        0.63130000      -0.00950000       2.59470000
O        1.39680000      -0.78720000       3.49980000
H        0.95480000       1.98670000      -0.00550000
H       -0.54610000       1.89480000      -0.94040000
H       -0.61320000       1.97170000       0.82140000
H       -2.02280000      -0.18330000      -0.77880000
H       -1.43700000      -1.63510000       0.05440000
H       -1.96310000      -0.22740000       0.98660000
H        0.11570000      -0.81240000      -2.02360000
H        1.49130000       0.18200000      -1.55050000
H        1.02820000      -2.73410000      -0.83510000
H        2.54210000      -1.89750000      -1.12030000
H        2.27290000      -2.05580000       1.51280000
H        0.92820000       1.05300000       2.63820000
H       -0.44130000      -0.03570000       2.85780000
H        1.31620000      -0.39180000       4.37210000
