20
Properties=species:S:1:pos:R:3 gdb_40845=T pbc="F F F"
C       -0.16470000       1.34730000      -0.07570000
C        1.27930000       0.99240000       0.15000000
C        0.24240000      -0.10440000       0.04540000
N       -0.10970000      -0.76710000       1.25730000
C       -0.40340000      -1.99250000       1.24880000
C       -0.77370000      -2.82300000       2.45930000
C       -1.48200000      -4.03460000       1.83710000
C       -0.78310000      -4.13100000       0.47450000
O       -0.43930000      -2.78340000       0.12400000
H       -0.71540000       1.76360000       0.75940000
H       -0.46850000       1.70830000      -1.05210000
H        1.98070000       1.10600000      -0.66920000
H        1.69180000       1.17160000       1.13580000
H        0.24130000      -0.69250000      -0.86830000
H        0.14110000      -3.12700000       2.98250000
H       -1.37970000      -2.24950000       3.16080000
H       -1.38640000      -4.95170000       2.42170000
H       -2.54740000      -3.82640000       1.69930000
H        0.13500000      -4.73080000       0.53160000
H       -1.41320000      -4.53500000      -0.32150000
