18
Properties=species:S:1:pos:R:3 gdb_55127=T pbc="F F F"
C       -0.62520000       1.15050000       0.40350000
C        0.08250000      -0.12040000       0.06940000
O       -0.35940000      -1.33200000       0.71740000
C        1.03400000      -0.97700000       0.80160000
C        1.70180000      -1.45530000      -0.49020000
C        0.70130000      -0.53660000      -1.29240000
C       -0.19850000      -1.14840000      -2.36240000
N       -0.99900000      -2.16110000      -1.92560000
O       -0.17400000      -0.76530000      -3.51770000
H       -0.80980000       1.21290000       1.47910000
H       -0.03080000       2.01590000       0.09480000
H       -1.58900000       1.20350000      -0.11470000
H        1.44760000      -0.88660000       1.79970000
H        2.73660000      -1.12460000      -0.59850000
H        1.63810000      -2.52930000      -0.67640000
H        1.22440000       0.29710000      -1.76180000
H       -1.08380000      -2.34410000      -0.93660000
H       -1.66770000      -2.54300000      -2.57430000
