18
Properties=species:S:1:pos:R:3 gdb_26749=T pbc="F F F"
C       -0.02190000       1.59500000      -0.02210000
C        0.14180000       0.11460000      -0.04790000
C        0.00550000      -0.78390000      -1.09740000
O       -0.32010000      -0.38280000      -2.36610000
C        0.30240000      -2.12070000      -0.66650000
C        0.66770000      -1.97820000       0.65200000
C        0.78140000      -2.44280000       2.09310000
C        0.56230000      -0.92430000       2.44890000
N        0.60440000      -0.66000000       0.99770000
H        0.93050000       2.12310000       0.11670000
H       -0.44820000       1.92480000      -0.97250000
H       -0.69590000       1.92560000       0.77870000
H       -0.42590000      -1.16540000      -2.91350000
H        0.25520000      -3.01760000      -1.26540000
H       -0.01480000      -3.10290000       2.44760000
H        1.74640000      -2.85530000       2.40120000
H       -0.41090000      -0.71630000       2.90430000
H        1.35000000      -0.42400000       3.01980000
