21
Properties=species:S:1:pos:R:3 gdb_63000=T pbc="F F F"
C        0.02730000       1.54830000       0.06150000
C       -0.00250000       0.01420000      -0.00040000
C       -1.45370000      -0.49960000       0.01390000
C        0.71180000      -0.56300000      -1.24270000
C        2.18230000      -0.34260000      -1.48640000
C        1.72070000      -1.61180000      -0.80960000
C        1.72930000      -1.59140000       0.70280000
O        2.13280000      -0.33550000       1.27590000
C        0.73240000      -0.62410000       1.18560000
H        1.05450000       1.91710000       0.11020000
H       -0.45110000       1.98250000      -0.82280000
H       -0.50670000       1.91720000       0.94440000
H       -2.01010000      -0.10880000      -0.84440000
H       -1.48810000      -1.59330000      -0.03300000
H       -1.97700000      -0.18230000       0.92240000
H        0.08930000      -0.73130000      -2.11610000
H        2.52020000      -0.42480000      -2.51400000
H        2.72310000       0.37180000      -0.87960000
H        1.82080000      -2.56800000      -1.30900000
H        2.03190000      -2.47220000       1.26230000
H        0.22030000      -0.70610000       2.14370000
