18
Properties=species:S:1:pos:R:3 gdb_59928=T pbc="F F F"
C        0.19520000       1.37300000      -0.93130000
C       -0.14110000       0.19720000      -0.01070000
C        0.47060000      -1.11310000      -0.53060000
N        0.25590000       0.57570000       1.35680000
C       -0.23490000      -0.23430000       2.45320000
C        0.49410000      -1.50750000       2.70560000
N        1.09180000      -2.48350000       2.86350000
C       -0.24570000       0.55870000       3.70110000
N       -0.25650000       1.18790000       4.66850000
H        1.27920000       1.53180000      -0.97670000
H       -0.15130000       1.17490000      -1.94940000
H       -0.26970000       2.29350000      -0.57110000
H       -1.23400000       0.08640000       0.01890000
H        1.56420000      -1.04590000      -0.55670000
H        0.20350000      -1.97240000       0.08930000
H        0.12280000      -1.31450000      -1.54880000
H        1.25670000       0.72450000       1.43280000
H       -1.27720000      -0.49900000       2.23100000
