13
Properties=species:S:1:pos:R:3 gdb_4371=T pbc="F F F"
N       -0.01640000       1.36070000       0.17330000
C        0.02030000       0.00200000       0.05680000
N       -1.16320000      -0.62060000       0.00590000
C       -1.11880000      -1.94480000      -0.06420000
O       -2.31360000      -2.55470000      -0.11110000
N       -0.04400000      -2.73580000      -0.09850000
C        1.12730000      -2.08650000      -0.05140000
C        1.23400000      -0.71390000       0.02800000
H        0.80580000       1.89470000      -0.04940000
H       -0.90770000       1.79610000      -0.00270000
H       -2.12030000      -3.50070000      -0.16230000
H        2.01920000      -2.70830000      -0.07980000
H        2.19430000      -0.21580000       0.07060000
