14
Properties=species:S:1:pos:R:3 gdb_7629=T pbc="F F F"
O       -0.06960000       0.00850000       0.51040000
C       -0.06980000       1.34050000       0.32730000
O        0.90670000       2.02050000       0.49260000
C       -1.42220000       1.89500000      -0.10340000
C       -1.51240000       2.47530000      -1.55080000
C       -2.48370000       1.33060000      -1.68130000
N       -3.27360000       0.95010000      -2.70960000
H       -3.04120000       1.24640000      -3.64210000
H       -3.76700000       0.07420000      -2.62460000
N       -2.40790000       0.83380000      -0.48190000
H       -1.78520000       2.57430000       0.67440000
H       -1.93160000       3.48010000      -1.64350000
H       -0.59690000       2.40590000      -2.14320000
H       -0.96740000      -0.30430000       0.28690000
