18
Properties=species:S:1:pos:R:3 gdb_90267=T pbc="F F F"
O       -0.20430000       1.43880000       0.10450000
C       -0.03100000       0.04620000       0.02540000
C        0.35030000      -0.67290000       1.37090000
C       -1.10090000      -1.12640000       1.48300000
N       -1.70800000      -2.19630000       2.25130000
C       -2.99860000      -1.44470000       2.35350000
C       -2.29090000      -0.18310000       1.79310000
O       -2.55070000       0.08810000       0.40100000
C       -1.41580000      -0.70010000       0.01820000
H        0.65980000       1.83330000       0.26000000
H        0.60970000      -0.23800000      -0.82030000
H        1.04040000      -1.50700000       1.20490000
H        0.74380000      -0.03980000       2.17190000
H       -1.74870000      -3.10870000       1.80780000
H       -3.80220000      -1.78510000       1.69120000
H       -3.37290000      -1.38410000       3.38090000
H       -2.24980000       0.71850000       2.40540000
H       -1.61080000      -1.35850000      -0.83250000
