25
Properties=species:S:1:pos:R:3 gdb_60537=T pbc="F F F"
C        0.12140000       1.52310000      -0.41820000
C        0.03650000       0.03260000      -0.05130000
C        0.72000000      -0.21150000       1.29030000
C        1.50390000      -1.46880000       1.57430000
C        2.22270000      -0.15360000       1.40720000
C       -1.38640000      -0.55320000      -0.06050000
C       -1.43190000      -2.07300000      -0.03410000
C       -2.49520000       0.15590000       0.68340000
C       -2.50330000       0.11980000      -0.82690000
H        1.16040000       1.85930000      -0.35950000
H       -0.23280000       1.71480000      -1.43450000
H       -0.45980000       2.14880000       0.26820000
H        0.61010000      -0.51730000      -0.81330000
H        0.17050000       0.19770000       2.13540000
H        1.44490000      -1.90590000       2.56550000
H        1.60250000      -2.19760000       0.77640000
H        2.79560000      -0.00890000       0.49630000
H        2.66000000       0.31500000       2.28190000
H       -0.96990000      -2.47570000       0.87180000
H       -2.46480000      -2.43390000      -0.06970000
H       -0.90380000      -2.49860000      -0.89630000
H       -3.21640000      -0.45100000       1.22120000
H       -2.28310000       1.10710000       1.16020000
H       -2.30950000       1.04740000      -1.35120000
H       -3.22750000      -0.51950000      -1.32130000
