17
Properties=species:S:1:pos:R:3 gdb_20941=T pbc="F F F"
C        0.01710000       1.53630000      -0.02610000
C       -0.12610000       0.02170000      -0.13620000
N        0.84820000      -0.51640000      -1.07530000
C        0.86510000      -1.88220000      -1.32020000
N        1.28780000      -2.34610000      -2.49680000
N        1.23380000      -3.69520000      -2.35950000
C        0.78080000      -4.08600000      -1.15050000
C        0.52360000      -2.93710000      -0.43230000
H        1.02910000       1.80800000       0.28810000
H       -0.18080000       2.02200000      -0.98870000
H       -0.69460000       1.93890000       0.70010000
H        0.05730000      -0.43190000       0.84490000
H       -1.16200000      -0.23870000      -0.41390000
H        0.90950000       0.00890000      -1.93810000
H        1.51150000      -4.27100000      -3.13390000
H        0.67600000      -5.12790000      -0.89120000
H        0.15320000      -2.87220000       0.57660000
