19
Properties=species:S:1:pos:R:3 gdb_108876=T pbc="F F F"
O        0.08290000       1.42420000      -0.07570000
C        0.00990000       0.01870000       0.05770000
C       -1.42420000      -0.43170000       0.07500000
C       -2.45950000       0.40390000       0.15020000
C       -3.88460000      -0.07730000       0.10970000
O       -4.70860000       0.75540000      -0.70230000
C       -3.92490000      -1.53120000      -0.37940000
O       -2.96300000      -2.32150000       0.29440000
C       -1.63970000      -1.92520000       0.00210000
H        0.99780000       1.68990000       0.05040000
H        0.53560000      -0.49020000      -0.77080000
H        0.50170000      -0.32250000       0.98590000
H       -2.29870000       1.47490000       0.21890000
H       -4.33390000      -0.01810000       1.10900000
H       -4.25770000       0.86870000      -1.54690000
H       -4.90000000      -1.98550000      -0.18810000
H       -3.74940000      -1.54300000      -1.46990000
H       -1.34100000      -2.28980000      -0.99940000
H       -0.99870000      -2.44200000       0.72780000
