19
Properties=species:S:1:pos:R:3 gdb_32909=T pbc="F F F"
C        0.14420000       1.48710000       0.16810000
C        0.14130000      -0.03950000       0.06710000
C        0.57290000      -0.54190000      -1.32490000
C        0.59640000      -2.02050000      -1.45400000
C       -0.07470000      -2.94560000      -2.17360000
N        0.37000000      -4.23120000      -1.85820000
C        1.29110000      -4.01810000      -0.97210000
N        2.11660000      -4.93780000      -0.37040000
O        1.50240000      -2.72050000      -0.65870000
H        1.14190000       1.89590000      -0.02760000
H       -0.54360000       1.93490000      -0.55810000
H       -0.16190000       1.81990000       1.16460000
H        0.81400000      -0.46480000       0.82070000
H       -0.85850000      -0.43030000       0.29040000
H       -0.11220000      -0.15410000      -2.08760000
H        1.56420000      -0.12930000      -1.56080000
H       -0.85500000      -2.78410000      -2.90100000
H        1.75590000      -5.87850000      -0.43430000
H        2.41500000      -4.68790000       0.56130000
