16
Properties=species:S:1:pos:R:3 gdb_124480=T pbc="F F F"
C       -0.09450000       1.59600000       0.05870000
C        0.02560000       0.07370000       0.03240000
C        0.79560000      -0.45800000       1.25380000
O       -1.30490000      -0.43420000       0.01900000
C        0.71610000      -0.39640000      -1.22850000
N        1.42510000       0.30760000      -2.05920000
O        1.81650000      -0.57620000      -3.01290000
N        1.30080000      -1.82750000      -2.70390000
N        0.64610000      -1.72040000      -1.63750000
H        0.89020000       2.06750000       0.03630000
H       -0.67040000       1.94590000      -0.80050000
H       -0.61400000       1.89470000       0.97220000
H        0.25720000      -0.17780000       2.16290000
H        0.87650000      -1.54920000       1.21770000
H        1.80700000      -0.04300000       1.29780000
H       -1.25880000      -1.39640000      -0.03210000
