19
Properties=species:S:1:pos:R:3 gdb_119208=T pbc="F F F"
C       -0.25240000       1.43290000       0.08260000
N        0.03190000       0.00470000       0.10960000
C        1.38170000      -0.44260000      -0.15930000
C        0.80290000      -0.57860000       1.22240000
C        1.38180000       0.23790000       2.37030000
C        0.38430000       0.50870000       3.49500000
O        1.07260000       1.26040000       4.48010000
C        0.31310000      -1.88830000       1.62100000
N       -0.05380000      -2.93020000       1.96280000
H        0.57810000       2.07510000       0.40990000
H       -0.50170000       1.70430000      -0.94750000
H       -1.12500000       1.64040000       0.70820000
H        1.48380000      -1.31380000      -0.80000000
H        2.16680000       0.30630000      -0.26430000
H        2.23810000      -0.30160000       2.78990000
H        1.76600000       1.18990000       1.99610000
H       -0.48560000       1.06040000       3.10410000
H        0.01330000      -0.44520000       3.89770000
H        0.49240000       1.36680000       5.23940000
