20
Properties=species:S:1:pos:R:3 gdb_22852=T pbc="F F F"
C       -0.04240000       1.49180000       0.12450000
C        0.00150000       0.00580000      -0.03400000
C       -0.00810000      -0.71440000      -1.17800000
C       -0.06620000      -0.17300000      -2.57800000
C        0.04780000      -2.15090000      -0.84790000
C        0.10200000      -2.30640000       0.66530000
C        0.06460000      -0.86040000       1.20210000
N        0.05770000      -3.21060000      -1.56550000
O        0.00500000      -2.95240000      -2.95090000
H        0.84030000       1.84760000       0.67190000
H       -0.08710000       2.02530000      -0.82650000
H       -0.91380000       1.79040000       0.72210000
H        0.80140000      -0.49600000      -3.15980000
H       -0.94490000      -0.54970000      -3.10840000
H       -0.09980000       0.91880000      -2.58360000
H       -0.74180000      -2.90360000       1.02090000
H        1.01100000      -2.83540000       0.96400000
H        0.94710000      -0.61520000       1.80760000
H       -0.80140000      -0.67740000       1.85210000
H        0.02100000      -3.84340000      -3.31390000
