17
Properties=species:S:1:pos:R:3 gdb_93566=T pbc="F F F"
C        0.10350000       1.52940000       0.03440000
C        0.01430000       0.00420000       0.04060000
C        0.72200000      -0.67910000      -1.16540000
O        1.68830000      -1.57050000      -0.56090000
C        1.56790000      -1.38670000       0.76670000
N        0.70020000      -0.57030000       1.21430000
C        2.50650000      -2.19810000       1.63460000
N        2.31220000      -1.95290000       2.95390000
O        3.32220000      -2.96570000       1.17090000
H        1.14840000       1.85420000      -0.00070000
H       -0.41610000       1.94340000      -0.83610000
H       -0.35280000       1.94290000       0.93750000
H       -1.04170000      -0.28770000       0.08870000
H        0.05360000      -1.27650000      -1.78990000
H        1.26440000       0.02990000      -1.79890000
H        1.60530000      -1.29550000       3.24020000
H        2.87870000      -2.43650000       3.62930000
