23
Properties=species:S:1:pos:R:3 gdb_123063=T pbc="F F F"
O        0.04580000       1.35080000      -0.34150000
C        0.00590000      -0.03690000      -0.07510000
C       -1.42590000      -0.53160000       0.05720000
O       -2.07360000      -0.23360000      -1.16530000
C       -3.46200000      -0.50770000      -1.16410000
C       -4.03560000      -0.13580000      -2.51360000
C       -3.65890000      -0.99260000      -3.75460000
C       -5.13130000      -0.87530000      -4.23420000
C       -5.52930000      -0.46600000      -2.78920000
H       -0.58270000       1.49160000      -1.05970000
H        0.51250000      -0.61370000      -0.86570000
H        0.54550000      -0.20590000       0.86260000
H       -1.44990000      -1.61460000       0.26340000
H       -1.92770000      -0.01260000       0.88990000
H       -3.63480000      -1.57900000      -0.96080000
H       -3.96250000       0.05950000      -0.36000000
H       -3.83350000       0.92340000      -2.70650000
H       -2.87260000      -0.61680000      -4.41240000
H       -3.40700000      -2.01790000      -3.46420000
H       -5.26440000      -0.04900000      -4.93820000
H       -5.60220000      -1.76630000      -4.65560000
H       -5.86110000      -1.33000000      -2.20310000
H       -6.25960000       0.33690000      -2.66380000
