17
Properties=species:S:1:pos:R:3 gdb_34431=T pbc="F F F"
C       -0.04230000      -1.17690000       0.07220000
C       -0.02630000       0.02460000       0.05680000
C        0.01350000       1.46460000       0.01510000
O       -0.84800000       2.05950000       0.97580000
C       -0.64590000       3.46490000       0.75320000
C        0.36930000       3.43330000      -0.37780000
C        1.36290000       2.26380000      -0.06690000
C        1.44370000       1.94820000      -1.57730000
C       -0.04870000       2.26610000      -1.33410000
H       -0.05990000      -2.23840000       0.08940000
H       -1.59500000       3.93990000       0.47600000
H       -0.26740000       3.93770000       1.66780000
H        0.74430000       4.36800000      -0.79390000
H        2.15910000       2.25560000       0.67820000
H        1.99230000       2.66920000      -2.18710000
H        1.69090000       0.92140000      -1.85460000
H       -0.87520000       2.26050000      -2.04550000
