19
Properties=species:S:1:pos:R:3 gdb_74411=T pbc="F F F"
C       -0.11460000       1.49870000      -0.10270000
C       -0.00400000       0.01250000       0.05850000
C        1.23440000      -0.79460000      -0.24230000
C        0.65160000      -0.80090000       1.16540000
C        1.41700000      -0.25630000       2.34170000
N       -0.26220000      -1.89100000       1.44370000
C       -1.23670000      -1.74450000       0.62800000
N       -2.29420000      -2.59600000       0.44410000
O       -1.23430000      -0.66900000      -0.20940000
H        0.82550000       1.97910000       0.18110000
H       -0.32830000       1.76840000      -1.14270000
H       -0.91280000       1.90400000       0.52740000
H        1.14480000      -1.69390000      -0.84320000
H        2.14420000      -0.22320000      -0.39870000
H        2.02780000       0.60520000       2.05570000
H        0.73620000       0.05110000       3.14210000
H        2.08430000      -1.02430000       2.74610000
H       -2.43050000      -3.23610000       1.21160000
H       -3.13960000      -2.15690000       0.11110000
