16
Properties=species:S:1:pos:R:3 gdb_51511=T pbc="F F F"
N       -0.11260000       1.29610000      -0.25240000
C       -0.09350000       0.03770000      -0.13220000
O        1.04600000      -0.73760000      -0.06330000
C        0.68920000      -2.12210000       0.07300000
C        1.31050000      -2.69920000       1.35730000
C        2.82580000      -2.61810000       1.35340000
O        3.54970000      -3.56470000       1.52350000
C       -0.81520000      -2.11760000       0.06930000
C       -1.25000000      -0.86350000      -0.04260000
H        0.83580000       1.67180000      -0.29300000
H        1.08990000      -2.66100000      -0.79760000
H        0.93230000      -2.11770000       2.20820000
H        1.01750000      -3.74520000       1.48540000
H        3.23290000      -1.59960000       1.17950000
H       -1.40320000      -3.02180000       0.15320000
H       -2.26620000      -0.49990000      -0.07310000
