22
Properties=species:S:1:pos:R:3 gdb_73812=T pbc="F F F"
C        0.11870000       1.51440000      -0.10390000
C        0.01280000       0.02540000       0.00270000
C       -1.09270000      -0.72910000       0.10980000
C       -2.52230000      -0.28700000       0.16670000
C       -0.73460000      -2.19380000       0.10180000
C       -1.55700000      -3.20150000       0.86270000
N       -0.11480000      -2.58060000      -1.20420000
C        0.74260000      -2.24900000      -0.03990000
C        1.27290000      -0.82540000      -0.05520000
H        0.78480000       1.91810000       0.67010000
H        0.55170000       1.80900000      -1.06880000
H       -0.84820000       2.01400000      -0.00730000
H       -2.62000000       0.80100000       0.17690000
H       -3.08360000      -0.66520000      -0.69780000
H       -3.02800000      -0.67360000       1.06050000
H       -2.55690000      -3.31580000       0.42810000
H       -1.07480000      -4.18460000       0.85210000
H       -1.68300000      -2.90270000       1.90940000
H       -0.14770000      -3.59720000      -1.28510000
H        1.32740000      -3.04380000       0.41230000
H        1.86080000      -0.61680000      -0.95840000
H        1.93020000      -0.62980000       0.80400000
