20
Properties=species:S:1:pos:R:3 gdb_88480=T pbc="F F F"
C       -0.51590000       1.36970000      -0.01700000
C       -0.05740000      -0.07170000       0.04040000
C        1.35970000      -0.46530000      -0.30160000
C        0.86510000      -0.60720000       1.11770000
C        1.40750000       0.22170000       2.25960000
C        0.60070000       0.29330000       3.55320000
C        1.86500000      -0.50670000       3.52220000
C        2.17410000       1.39440000       1.92070000
N        2.79650000       2.33200000       1.64890000
H        0.28070000       2.06750000       0.25140000
H       -0.84730000       1.62390000      -1.02960000
H       -1.35880000       1.54510000       0.66080000
H       -0.81990000      -0.78250000      -0.26990000
H        1.54020000      -1.36590000      -0.87820000
H        2.06030000       0.33950000      -0.50100000
H        0.64690000      -1.62140000       1.44140000
H        0.59660000       1.23030000       4.09710000
H       -0.34700000      -0.23330000       3.54450000
H        1.79930000      -1.58870000       3.49760000
H        2.73340000      -0.11650000       4.03900000
