23
Properties=species:S:1:pos:R:3 gdb_113088=T pbc="F F F"
C       -0.02980000       1.56790000       0.16840000
C       -0.01590000       0.04370000       0.02060000
C        0.65630000      -0.45690000      -1.26880000
C        0.78530000      -2.00350000      -1.33640000
C        0.56460000      -2.39680000      -2.81890000
C       -0.21410000      -3.69830000      -2.98950000
O       -0.30680000      -3.97590000      -4.37990000
C       -0.13520000      -1.18040000      -3.38240000
C       -0.08560000      -0.14120000      -2.55180000
H        0.98730000       1.97570000       0.15230000
H       -0.59080000       2.04880000      -0.63960000
H       -0.49280000       1.86890000       1.11340000
H        0.50850000      -0.39600000       0.87930000
H       -1.04280000      -0.34340000       0.05780000
H        1.65800000       0.00090000      -1.31450000
H        1.73680000      -2.36520000      -0.93760000
H       -0.00980000      -2.44970000      -0.72410000
H        1.52620000      -2.53790000      -3.33430000
H        0.30380000      -4.51180000      -2.45500000
H       -1.21270000      -3.58710000      -2.53640000
H       -0.84730000      -4.76250000      -4.49570000
H       -0.58560000      -1.18840000      -4.36800000
H       -0.49130000       0.84250000      -2.76330000
