16
Properties=species:S:1:pos:R:3 gdb_5115=T pbc="F F F"
C        0.04450000       1.45450000       0.00920000
N        0.04040000       0.00530000       0.00470000
C        0.05670000      -0.80070000      -1.10930000
O        0.07870000      -0.20630000      -2.33000000
C        0.04580000      -2.09330000      -0.66480000
N        0.02280000      -2.10150000       0.71740000
C        0.02000000      -0.84580000       1.09370000
C       -0.00200000      -0.35300000       2.50010000
H        0.92660000       1.84240000       0.52850000
H        0.06200000       1.80580000      -1.02240000
H       -0.85160000       1.84740000       0.50000000
H        0.08770000      -0.89570000      -3.00070000
H        0.05290000      -3.00320000      -1.24480000
H        0.87900000       0.25430000       2.74290000
H       -0.88720000       0.25920000       2.71350000
H       -0.01550000      -1.21890000       3.16340000
