20
Properties=species:S:1:pos:R:3 gdb_6895=T pbc="F F F"
C        0.23520000       1.52200000       0.10050000
C       -0.16370000       0.05310000      -0.08730000
C        0.54630000      -0.58250000      -1.26580000
C        1.90930000      -1.22470000      -1.11770000
O        2.44940000      -1.23800000       0.17480000
C        0.69340000      -2.07210000      -1.45540000
C        0.15100000      -3.07260000      -0.46230000
O        0.55950000      -2.45800000      -2.80330000
H        1.30800000       1.60800000       0.29840000
H        0.01060000       2.11230000      -0.79480000
H       -0.30220000       1.97270000       0.94080000
H        0.06550000      -0.49790000       0.82850000
H       -1.24830000      -0.02000000      -0.23850000
H        0.41400000      -0.05330000      -2.20650000
H        2.62700000      -1.06250000      -1.92240000
H        2.96930000      -2.04190000       0.27650000
H        0.35110000      -2.76770000       0.56650000
H       -0.92850000      -3.20090000      -0.58900000
H        0.62200000      -4.05300000      -0.61540000
H        1.08340000      -3.25670000      -2.93570000
