23
Properties=species:S:1:pos:R:3 gdb_87960=T pbc="F F F"
C       -0.03320000       1.49470000      -0.25350000
C        0.04510000       0.00060000      -0.03590000
C        1.37360000      -0.73770000      -0.12930000
C        0.67790000      -0.60670000       1.19040000
C        1.19300000       0.20990000       2.37680000
C        0.99500000      -0.74040000       3.57830000
C        0.74190000      -0.04880000       4.91460000
C       -0.16350000      -1.60940000       3.07120000
O        0.09370000      -1.79970000       1.68970000
H        0.84820000       2.00620000       0.14730000
H       -0.09150000       1.73430000      -1.32130000
H       -0.91570000       1.92740000       0.23200000
H       -0.80670000      -0.56400000      -0.40600000
H        1.37780000      -1.71990000      -0.58930000
H        2.27370000      -0.15230000      -0.29400000
H        2.23460000       0.51890000       2.25640000
H        0.59500000       1.11880000       2.51500000
H        1.87850000      -1.38470000       3.66310000
H       -0.14190000       0.59750000       4.86150000
H        0.57630000      -0.77740000       5.71550000
H        1.59280000       0.57490000       5.20700000
H       -0.21930000      -2.59470000       3.54280000
H       -1.12750000      -1.09460000       3.23030000
