21
Properties=species:S:1:pos:R:3 gdb_97587=T pbc="F F F"
C        0.25040000       1.47660000       0.11460000
C        0.10780000      -0.03380000      -0.14790000
C       -1.27330000      -0.50090000      -0.07390000
C       -2.42150000      -0.86300000      -0.02070000
C       -3.80760000      -1.31990000       0.08120000
C       -3.91070000      -2.85900000       0.06440000
C       -4.45550000      -0.75840000       1.33990000
C       -5.24940000       0.47230000       1.32560000
O       -5.88070000      -0.81210000       1.38430000
H        1.29980000       1.77880000       0.04750000
H       -0.32230000       2.05330000      -0.61670000
H       -0.11950000       1.73420000       1.11080000
H        0.51950000      -0.27350000      -1.13690000
H        0.72000000      -0.58990000       0.57370000
H       -4.37930000      -0.93110000      -0.77220000
H       -4.95920000      -3.15980000       0.13890000
H       -3.48960000      -3.26390000      -0.85910000
H       -3.36100000      -3.29170000       0.90590000
H       -3.96370000      -1.04620000       2.27070000
H       -5.33510000       1.07660000       2.22730000
H       -5.38010000       1.01360000       0.38940000
