16
Properties=species:S:1:pos:R:3 gdb_22140=T pbc="F F F"
C       -0.35590000       1.44440000      -0.03070000
C        0.09360000       0.00700000       0.07110000
N        0.39650000      -0.57670000       1.17960000
O        0.24950000       0.29710000       2.25580000
C        0.19650000      -0.77890000      -1.11140000
C        0.27190000      -1.38200000      -2.15400000
C        0.31940000      -2.16960000      -3.37440000
C       -0.62830000      -3.37450000      -3.32620000
O       -1.26130000      -3.75510000      -4.27180000
H        0.41500000       2.10820000       0.37310000
H       -0.56270000       1.71610000      -1.06550000
H       -1.25490000       1.60000000       0.57370000
H        0.50010000      -0.25570000       3.00390000
H        0.07650000      -1.57860000      -4.26320000
H        1.33290000      -2.57370000      -3.52350000
H       -0.67140000      -3.88270000      -2.33940000
