21
Properties=species:S:1:pos:R:3 gdb_53437=T pbc="F F F"
C        0.20370000       1.23610000       0.75780000
C        0.04590000      -0.14960000       0.33960000
C       -0.07380000      -1.29500000      -0.01510000
C       -0.19690000      -2.69570000      -0.43960000
O        0.83140000      -3.51330000       0.11700000
C        0.39160000      -4.01800000       1.38440000
C       -1.12660000      -3.75750000       1.47350000
C       -1.50620000      -3.37660000       0.03100000
C       -2.78730000      -2.56340000      -0.11730000
H        1.26220000       1.51190000       0.82030000
H       -0.27480000       1.92070000       0.04870000
H       -0.24410000       1.41230000       1.74200000
H       -0.08440000      -2.75330000      -1.52820000
H        0.63760000      -5.08540000       1.41290000
H        0.93810000      -3.52240000       2.19660000
H       -1.68120000      -4.62560000       1.83820000
H       -1.33780000      -2.91960000       2.14560000
H       -1.58920000      -4.29570000      -0.56190000
H       -2.72330000      -1.62590000       0.44230000
H       -2.98220000      -2.31550000      -1.16620000
H       -3.64870000      -3.12720000       0.25520000
