17
Properties=species:S:1:pos:R:3 gdb_35862=T pbc="F F F"
C       -0.13320000      -1.20590000      -0.35610000
C       -0.08400000      -0.02670000      -0.13000000
C       -0.04330000       1.41090000       0.11610000
O       -0.43100000       1.73910000       1.45890000
C        0.66530000       2.40710000       2.05610000
O        1.38130000       3.01660000       1.01080000
C        1.35100000       2.05630000      -0.01580000
C        2.60800000       1.30890000      -0.35990000
C        2.03970000       2.36740000      -1.29430000
H       -0.18210000      -2.24950000      -0.54800000
H       -0.75180000       1.91000000      -0.55840000
H        0.29180000       3.17980000       2.73310000
H        1.30190000       1.68800000       2.59950000
H        3.49540000       1.57170000       0.20450000
H        2.52790000       0.26800000      -0.65050000
H        1.57320000       2.04120000      -2.21800000
H        2.55410000       3.31990000      -1.35350000
