17
Properties=species:S:1:pos:R:3 gdb_35234=T pbc="F F F"
C       -0.09880000      -1.19960000      -0.04360000
C       -0.02560000       0.00030000      -0.02230000
C        0.05020000       1.43560000      -0.02990000
O        0.55000000       2.08910000       1.15510000
C        1.34330000       2.15180000      -0.02390000
C        2.71510000       1.48450000      -0.02000000
C        3.53340000       2.42400000      -0.91910000
O        2.94170000       3.70970000      -0.75400000
C        1.54020000       3.50690000      -0.70920000
H       -0.16630000      -2.25970000      -0.05200000
H       -0.80780000       1.93850000      -0.47780000
H        3.09940000       1.48650000       1.00390000
H        2.68360000       0.45210000      -0.37440000
H        4.58540000       2.50180000      -0.63690000
H        3.47750000       2.10610000      -1.97320000
H        1.11400000       3.49090000      -1.72620000
H        1.07860000       4.31990000      -0.14320000
