19
Properties=species:S:1:pos:R:3 gdb_113558=T pbc="F F F"
C       -0.03930000       0.93880000       0.57690000
O       -0.24990000      -0.00240000      -0.46210000
C       -1.43080000      -0.71620000      -0.31260000
C       -1.41790000      -2.12150000      -0.86500000
C       -1.45220000      -1.90080000       0.61470000
O       -0.35260000      -2.22360000       1.46730000
C       -1.25080000      -2.41810000       2.58750000
C       -2.48900000      -2.24830000       1.66940000
O       -3.38300000      -1.19820000       1.94680000
H        0.89180000       1.46170000       0.34560000
H       -0.85700000       1.67340000       0.62680000
H        0.05520000       0.44380000       1.55060000
H       -2.34820000      -0.12970000      -0.38850000
H       -2.29950000      -2.50500000      -1.36870000
H       -0.46600000      -2.44970000      -1.26940000
H       -1.10220000      -3.39470000       3.05960000
H       -1.16270000      -1.61790000       3.33190000
H       -3.01930000      -3.18920000       1.47490000
H       -4.08630000      -1.53460000       2.51020000
