23
Properties=species:S:1:pos:R:3 gdb_83364=T pbc="F F F"
C       -0.13850000       1.55880000      -0.05380000
C        0.05650000       0.04580000      -0.00050000
C        1.07490000      -0.57820000      -0.98670000
C        2.42740000      -0.01820000      -0.48290000
C        2.23330000      -0.00620000       1.06550000
C        0.79150000      -0.54540000       1.22730000
C        0.16570000      -0.39650000       2.59580000
O        0.83700000      -1.95280000       0.89650000
C        0.99000000      -2.04140000      -0.53130000
H        0.79920000       2.11210000       0.04680000
H       -0.59450000       1.85480000      -1.00450000
H       -0.80700000       1.89360000       0.74650000
H       -0.92030000      -0.44300000      -0.09630000
H        0.88320000      -0.43200000      -2.05140000
H        3.26470000      -0.64720000      -0.79830000
H        2.61410000       0.98490000      -0.87530000
H        2.93250000      -0.66460000       1.58660000
H        2.34330000       0.99760000       1.48750000
H        0.09160000       0.65840000       2.87700000
H       -0.83640000      -0.83500000       2.61030000
H        0.76960000      -0.90840000       3.35130000
H        0.12400000      -2.56360000      -0.96130000
H        1.89290000      -2.61690000      -0.77330000
