18
Properties=species:S:1:pos:R:3 gdb_87744=T pbc="F F F"
C        0.11030000       1.50020000      -0.22540000
C        0.02620000       0.01740000       0.01840000
O        1.27010000      -0.71310000       0.02240000
C        0.54300000      -0.63430000       1.22680000
C        1.05570000      -0.00350000       2.52500000
C        0.12220000      -1.00090000       3.29440000
C       -0.01910000      -1.84280000       1.97990000
C        0.66240000      -1.66340000       4.46750000
N        1.10470000      -2.19520000       5.39420000
H        0.91720000       1.95080000       0.35790000
H        0.30220000       1.70240000      -1.28400000
H       -0.83350000       1.98760000       0.04290000
H       -0.77320000      -0.49930000      -0.51680000
H        2.11190000      -0.22880000       2.69110000
H        0.88080000       1.06020000       2.69530000
H       -0.82520000      -0.52430000       3.55760000
H       -1.02000000      -2.19590000       1.72580000
H        0.67890000      -2.68350000       1.96340000
