22
Properties=species:S:1:pos:R:3 gdb_26650=T pbc="F F F"
C        0.01620000       1.49720000       0.12940000
C        0.02240000       0.01250000      -0.03200000
C       -0.00230000      -0.79230000      -1.15100000
C       -0.04470000      -0.35870000      -2.58520000
C        0.01960000      -2.15780000      -0.70310000
C        0.00340000      -3.35740000      -1.60160000
C        0.05710000      -2.14260000       0.67480000
C        0.09320000      -3.24290000       1.68400000
N        0.05830000      -0.82080000       1.06530000
H        0.91120000       1.86170000       0.65080000
H       -0.01270000       1.98780000      -0.84590000
H       -0.85500000       1.84950000       0.69730000
H        0.82320000      -0.72500000      -3.14850000
H       -0.93550000      -0.73990000      -3.10080000
H       -0.05660000       0.73070000      -2.68150000
H        0.86470000      -3.36990000      -2.28180000
H        0.02570000      -4.29210000      -1.03410000
H       -0.89400000      -3.38240000      -2.23320000
H        0.99490000      -3.20320000       2.30930000
H       -0.77120000      -3.21410000       2.36060000
H        0.08480000      -4.21630000       1.18900000
H        0.08240000      -0.50720000       2.02010000
