18
Properties=species:S:1:pos:R:3 gdb_81512=T pbc="F F F"
C       -0.04190000       1.54140000       0.01190000
N       -0.03180000       0.07020000      -0.04010000
C       -1.12630000      -0.76690000       0.57140000
C       -0.14910000      -1.96180000       0.41330000
C        0.64360000      -0.77040000       1.01330000
C       -0.54890000      -0.55260000       2.02590000
N       -0.69830000       0.75530000       2.63490000
C       -0.79640000      -1.62300000       3.00850000
N       -1.00380000      -2.40920000       3.83270000
H        0.68750000       1.94050000       0.72050000
H        0.20770000       1.91360000      -0.98890000
H       -1.01650000       1.94420000       0.29710000
H       -2.17070000      -0.68560000       0.26550000
H       -0.30670000      -2.83980000       1.03750000
H        0.10780000      -2.19370000      -0.61740000
H        1.70950000      -0.69340000       1.23440000
H       -1.63290000       0.85230000       3.02250000
H       -0.05500000       0.84910000       3.41630000
