19
Properties=species:S:1:pos:R:3 gdb_92716=T pbc="F F F"
C       -0.03700000       1.48730000       0.07520000
N       -0.05160000       0.04450000       0.18680000
C       -1.36080000      -0.60680000       0.09690000
C       -1.17870000      -1.85560000       0.90890000
C       -0.04270000      -1.83460000       1.60120000
C        0.51080000      -2.84430000       2.55080000
C        0.67060000      -0.51510000       1.32510000
C        2.10770000      -0.67920000       1.02510000
N        3.23630000      -0.80850000       0.81310000
H        0.99580000       1.84800000       0.04810000
H       -0.51740000       1.78760000      -0.86080000
H       -0.56000000       1.99640000       0.90700000
H       -2.17220000       0.01830000       0.51820000
H       -1.62890000      -0.80440000      -0.95040000
H       -1.91230000      -2.65230000       0.93370000
H       -0.14340000      -3.71640000       2.62260000
H        1.50480000      -3.18110000       2.23450000
H        0.62780000      -2.42140000       3.55670000
H        0.61660000       0.12630000       2.22950000
