21
Properties=species:S:1:pos:R:3 gdb_115888=T pbc="F F F"
C       -0.16570000       1.33040000       0.05260000
O       -0.03210000      -0.07960000       0.01570000
C        0.67120000      -0.60880000       1.09020000
O       -0.07530000      -0.43340000       2.29280000
C        0.18610000      -1.52490000       3.16920000
C        0.53340000      -2.69710000       2.27030000
C       -0.38420000      -2.90810000       1.09260000
C        0.88200000      -2.10490000       0.92510000
C        2.01110000      -2.56750000       0.04080000
H        0.81650000       1.82260000       0.12050000
H       -0.64830000       1.62910000      -0.88060000
H       -0.78050000       1.65340000       0.90040000
H        1.64440000      -0.08650000       1.18720000
H        1.02640000      -1.29700000       3.84430000
H       -0.71080000      -1.67650000       3.78020000
H        1.08900000      -3.53050000       2.68500000
H       -0.39730000      -3.89530000       0.64350000
H       -1.33290000      -2.38260000       1.07270000
H        1.84450000      -2.25280000      -0.99510000
H        2.97220000      -2.15160000       0.36620000
H        2.09870000      -3.65810000       0.04970000
