17
Properties=species:S:1:pos:R:3 gdb_72639=T pbc="F F F"
O       -0.13110000       1.42320000       0.04700000
C       -0.08380000       0.04800000       0.06640000
C        0.73420000      -0.79880000       1.04840000
C       -0.46060000      -1.81290000       1.11420000
C       -1.22610000      -0.92180000       0.12900000
O       -2.57430000      -0.65120000       0.18080000
C       -0.40750000      -0.81050000      -1.17600000
C       -1.06220000      -0.11210000      -2.30360000
O       -0.87870000      -0.40320000      -3.46400000
H        0.63030000       1.75480000      -0.44340000
H        1.69050000      -1.18220000       0.68130000
H        0.88720000      -0.28080000       1.99740000
H       -0.25980000      -2.83760000       0.78890000
H       -0.93480000      -1.82710000       2.09780000
H       -3.05420000      -1.37340000      -0.24150000
H        0.26010000      -1.61620000      -1.47520000
H       -1.74590000       0.71200000      -2.01700000
