19
Properties=species:S:1:pos:R:3 gdb_71635=T pbc="F F F"
O        0.06370000       1.33800000       0.10280000
C        0.04550000      -0.04240000       0.06230000
C        0.62840000      -0.97140000       1.14100000
C        0.04340000      -1.92170000       0.05740000
C       -1.21090000      -0.98550000      -0.00460000
C       -2.01090000      -0.95580000      -1.30370000
C       -1.11160000      -1.43560000      -2.44490000
O        0.20770000      -0.91610000      -2.31720000
C        0.69750000      -0.97490000      -0.99980000
H       -0.02480000       1.65940000      -0.80190000
H        1.71550000      -0.96830000       1.26060000
H        0.11270000      -0.97640000       2.10380000
H        0.05800000      -3.00900000       0.07660000
H       -1.83430000      -0.97830000       0.89430000
H       -2.89810000      -1.59610000      -1.24290000
H       -2.36850000       0.06590000      -1.48840000
H       -1.06970000      -2.53550000      -2.43850000
H       -1.47580000      -1.12110000      -3.42660000
H        1.78960000      -0.96810000      -1.05540000
