17
Properties=species:S:1:pos:R:3 gdb_1150=T pbc="F F F"
C       -0.12670000       1.40900000       0.01360000
C        0.08010000      -0.07280000      -0.00270000
C        0.66600000      -0.98170000      -1.11460000
C        0.03860000      -1.87820000      -0.01540000
C       -0.23600000      -3.34900000      -0.01990000
C        0.71910000      -0.99820000       1.06540000
O       -1.12420000      -0.94850000       0.02000000
H        0.83750000       1.92700000      -0.00560000
H       -0.70710000       1.72570000      -0.85840000
H       -0.66450000       1.71210000       0.91710000
H        0.12210000      -0.96250000      -2.06080000
H        1.75190000      -1.00570000      -1.24440000
H        0.70340000      -3.91040000      -0.04760000
H       -0.78670000      -3.63990000       0.87990000
H       -0.83080000      -3.62620000      -0.89550000
H        1.81010000      -1.02380000       1.14170000
H        0.22200000      -0.99360000       2.03720000
