18
Properties=species:S:1:pos:R:3 gdb_98446=T pbc="F F F"
C        0.06350000       1.48550000       0.20120000
N        0.16380000       0.04790000       0.05620000
C        0.41670000      -0.54940000      -1.13120000
O        0.58460000       0.03870000      -2.18790000
C        0.48700000      -2.07590000      -1.09060000
O        0.26220000      -2.52560000       0.22930000
C       -0.32140000      -2.79300000      -2.20460000
O        0.86180000      -3.43440000      -2.71840000
C        1.70980000      -2.68930000      -1.82340000
H        0.82000000       1.86830000       0.89510000
H        0.22530000       1.92740000      -0.78280000
H       -0.92630000       1.77940000       0.56800000
H        0.04510000      -0.55530000       0.85430000
H        0.30840000      -3.48670000       0.24460000
H       -1.06460000      -3.51060000      -1.83370000
H       -0.77650000      -2.11760000      -2.93540000
H        2.32970000      -1.95910000      -2.35250000
H        2.33530000      -3.33700000      -1.19550000
