20
Properties=species:S:1:pos:R:3 gdb_99055=T pbc="F F F"
C        0.15420000       1.43540000      -0.39160000
C       -0.04110000      -0.00890000       0.07060000
C       -1.50630000      -0.43700000       0.02000000
O       -2.42970000       0.34870000       0.15070000
N       -1.70950000      -1.77560000      -0.15890000
C       -3.04820000      -2.36400000      -0.12280000
C       -3.64350000      -2.52400000      -1.53440000
C       -3.01410000      -3.63620000       0.59850000
C       -2.97260000      -4.69800000       1.16010000
H        1.18710000       1.75720000      -0.23290000
H       -0.07790000       1.54390000      -1.45530000
H       -0.51410000       2.09840000       0.16130000
H        0.57570000      -0.69960000      -0.51630000
H        0.28530000      -0.11610000       1.11370000
H       -0.92220000      -2.39820000      -0.23790000
H       -3.66460000      -1.64470000       0.42760000
H       -4.65500000      -2.93510000      -1.47610000
H       -3.68530000      -1.54600000      -2.01980000
H       -3.03080000      -3.19860000      -2.13910000
H       -2.94990000      -5.62750000       1.67330000
