23
Properties=species:S:1:pos:R:3 gdb_91065=T pbc="F F F"
C       -0.17150000       1.56050000       0.00440000
C        0.04800000       0.04900000       0.00650000
C        0.89200000      -0.47920000      -1.18220000
C        1.35660000      -1.87450000      -0.72740000
C        2.85040000      -2.25190000      -0.64240000
C        3.63220000      -1.25670000       0.16710000
C        2.77880000      -2.26010000       0.88940000
C        1.28330000      -1.88290000       0.83860000
C        0.77750000      -0.49240000       1.26300000
H        0.78600000       2.09320000       0.05210000
H       -0.68930000       1.88890000      -0.90330000
H       -0.77200000       1.87940000       0.86320000
H       -0.93410000      -0.44360000      -0.04220000
H        0.32050000      -0.49560000      -2.11540000
H        1.74960000       0.18490000      -1.34690000
H        0.76590000      -2.67290000      -1.18210000
H        3.34750000      -2.95430000      -1.30110000
H        4.69950000      -1.44930000       0.21590000
H        3.38450000      -0.19910000       0.16110000
H        3.21260000      -2.96970000       1.58410000
H        0.65320000      -2.68590000       1.22750000
H        1.61560000       0.16940000       1.51430000
H        0.12130000      -0.51860000       2.13860000
