20
Properties=species:S:1:pos:R:3 gdb_72897=T pbc="F F F"
C       -0.10650000       1.49850000       0.09970000
C        0.02460000      -0.01150000       0.01990000
C       -1.29300000      -0.76830000      -0.21030000
C       -1.16120000      -2.05340000       0.59740000
C       -0.03720000      -2.95690000       0.26250000
N        0.08200000      -2.03640000       1.41000000
C        0.77690000      -0.76540000       1.15480000
C        1.94660000      -0.79780000       0.16340000
O        1.08270000      -0.38870000      -0.92190000
H        0.86160000       1.96360000       0.30760000
H       -0.47490000       1.89950000      -0.85030000
H       -0.80690000       1.78830000       0.89000000
H       -2.13840000      -0.17530000       0.15320000
H       -1.44800000      -0.94860000      -1.27850000
H       -2.04860000      -2.44250000       1.08900000
H       -0.07370000      -4.00630000       0.54190000
H        0.50830000      -2.74360000      -0.65210000
H        0.93500000      -0.24830000       2.10360000
H        2.72300000      -0.04880000       0.36530000
H        2.41970000      -1.76840000      -0.01600000
