19
Properties=species:S:1:pos:R:3 gdb_26475=T pbc="F F F"
C       -0.00960000       1.48650000      -0.07910000
C        0.02130000      -0.02880000      -0.03790000
C        1.36110000      -0.72980000      -0.18720000
C        0.68130000      -0.70750000       1.15060000
C       -1.15080000      -0.72250000      -0.62180000
N       -1.32400000      -2.02790000      -0.68880000
C       -2.53970000      -2.21660000      -1.30310000
C       -3.11490000      -1.01570000      -1.61450000
N       -2.21560000      -0.06550000      -1.17290000
H        0.89490000       1.89990000       0.37470000
H       -0.05880000       1.86380000      -1.10810000
H       -0.86510000       1.89050000       0.47640000
H        1.35650000      -1.66490000      -0.73420000
H        2.23560000      -0.10480000      -0.33630000
H        1.08510000      -0.06720000       1.92820000
H        0.22400000      -1.62750000       1.49390000
H       -2.92960000      -3.20670000      -1.48490000
H       -4.04280000      -0.74580000      -2.09000000
H       -2.32530000       0.93110000      -1.24650000
