19
Properties=species:S:1:pos:R:3 gdb_114570=T pbc="F F F"
C        0.07840000       1.53120000       0.07130000
C       -0.18010000       0.03100000      -0.09720000
C        0.64540000      -0.56960000      -1.22320000
N        2.14080000      -0.56990000      -1.01660000
C        2.20020000      -1.99370000      -1.37220000
C        1.48210000      -2.78780000      -0.34300000
C        0.66160000      -2.10170000      -1.42900000
C       -0.19470000      -2.81220000      -2.31290000
N       -0.89570000      -3.37490000      -3.04400000
H        1.13540000       1.71600000       0.28710000
H       -0.18480000       2.08540000      -0.83680000
H       -0.51180000       1.94340000       0.89460000
H        0.04980000      -0.49070000       0.83820000
H       -1.24060000      -0.15180000      -0.31270000
H        0.38820000      -0.09180000      -2.17560000
H        2.59810000       0.00560000      -1.71500000
H        2.93880000      -2.40180000      -2.05100000
H        1.53090000      -3.86560000      -0.45310000
H        1.43580000      -2.42240000       0.67800000
