19
Properties=species:S:1:pos:R:3 gdb_75912=T pbc="F F F"
C       -0.03700000       1.63110000      -0.05470000
C        0.13800000       0.11700000       0.01210000
C        0.98110000      -0.42440000      -1.15650000
O        0.95610000      -0.03460000      -2.30360000
N        1.75400000      -1.43700000      -0.66250000
C        1.55250000      -1.73850000       0.74430000
C        0.81800000      -0.48860000       1.23910000
C        1.34530000       0.32700000       2.36090000
N        0.19070000      -0.57520000       2.55580000
H        0.92260000       2.14760000       0.03950000
H       -0.46560000       1.89950000      -1.02320000
H       -0.70540000       1.99670000       0.73190000
H       -0.84980000      -0.35740000      -0.09940000
H        2.30870000      -2.00450000      -1.28340000
H        0.93190000      -2.63300000       0.89390000
H        2.50230000      -1.89560000       1.26520000
H        2.25360000       0.02060000       2.87360000
H        1.17190000       1.39870000       2.35100000
H       -0.67120000      -0.03380000       2.57100000
