16
Properties=species:S:1:pos:R:3 gdb_124791=T pbc="F F F"
C        0.24810000       1.56920000      -0.22630000
C       -0.07220000       0.11330000       0.09360000
O        0.14340000      -0.76500000      -1.01010000
C        0.68320000      -0.39280000       1.29330000
N        1.20700000       0.32970000       2.23630000
N        1.74260000      -0.59310000       3.10760000
C        1.58040000      -1.90750000       2.71340000
O        1.95180000      -2.93080000       3.24310000
N        0.86510000      -1.73460000       1.52170000
H        1.30980000       1.68720000      -0.46800000
H       -0.35040000       1.89740000      -1.07920000
H        0.03430000       2.20780000       0.63370000
H       -1.14600000       0.01620000       0.30030000
H        1.03920000      -0.61370000      -1.33450000
H        2.23420000      -0.28810000       3.92880000
H        0.59920000      -2.47770000       0.89860000
