18
Properties=species:S:1:pos:R:3 gdb_112131=T pbc="F F F"
O       -0.44540000       1.75960000      -0.48840000
C       -0.09890000       0.40570000      -0.63210000
C       -1.14960000      -0.51270000       0.04830000
C       -0.84120000      -1.95300000      -0.23440000
C       -0.60350000      -2.94880000       0.61210000
C       -0.57430000      -2.90080000       2.10860000
O       -1.43200000      -1.96970000       2.77620000
C       -1.43770000      -0.65050000       2.47690000
N       -1.30570000      -0.01260000       1.39910000
H       -0.74340000       1.84130000       0.42940000
H       -0.05140000       0.18550000      -1.70370000
H        0.88960000       0.18180000      -0.19690000
H       -2.10170000      -0.27190000      -0.45190000
H       -0.80040000      -2.17660000      -1.29980000
H       -0.36400000      -3.92920000       0.20580000
H       -0.87550000      -3.87130000       2.51310000
H        0.45430000      -2.71850000       2.45480000
H       -1.64800000      -0.08850000       3.38860000
