14
Properties=species:S:1:pos:R:3 gdb_54473=T pbc="F F F"
N        0.47710000       0.35370000       1.03250000
C       -0.04350000       0.17720000      -0.21070000
O        0.48690000       0.52920000      -1.24840000
C       -1.35060000      -0.53500000      -0.23360000
O       -2.09670000      -0.78040000       0.96450000
C       -1.72980000      -1.90080000       0.16830000
C       -2.71210000      -1.98720000      -1.06930000
O       -3.63350000      -0.90600000      -0.97320000
C       -2.32650000      -0.63560000      -1.47000000
H        1.32310000       0.89130000       1.12480000
H       -0.09320000       0.17470000       1.84220000
H       -1.14080000      -2.69170000       0.61610000
H       -2.98590000      -2.86620000      -1.63770000
H       -2.19840000      -0.16340000      -2.43390000
