19
Properties=species:S:1:pos:R:3 gdb_49071=T pbc="F F F"
O       -0.21590000       0.04280000       0.03920000
C       -0.02370000       1.23130000       0.09530000
C        1.32050000       1.89650000       0.00110000
C        1.47560000       3.20860000       0.80650000
O        1.77580000       3.98200000      -0.36890000
C        1.52470000       2.85370000      -1.23460000
C        2.76990000       2.36210000      -1.96150000
C        3.59280000       1.65560000      -0.86800000
C        2.52910000       0.95220000       0.00110000
H       -0.87660000       1.94150000       0.20440000
H        0.55620000       3.55580000       1.29800000
H        2.29560000       3.21790000       1.53420000
H        0.66430000       3.03780000      -1.88780000
H        2.46650000       1.65070000      -2.73960000
H        3.29760000       3.18790000      -2.44720000
H        4.33280000       0.95990000      -1.27130000
H        4.13440000       2.40270000      -0.27830000
H        2.88080000       0.73310000       1.01380000
H        2.22080000       0.00160000      -0.44530000
