19
Properties=species:S:1:pos:R:3 gdb_106908=T pbc="F F F"
C       -0.33500000       1.49680000      -0.05040000
C        0.13000000       0.04090000       0.08040000
C        0.83480000      -0.48450000      -1.15440000
C        0.04100000      -1.00260000      -2.33870000
C        0.91140000      -1.94670000      -1.51750000
C        2.30670000      -2.19780000      -2.04860000
O        2.78090000      -3.26610000      -2.35880000
C        2.97990000      -0.86650000      -2.08010000
C        2.17130000       0.06760000      -1.56140000
H        0.50710000       2.17770000      -0.21280000
H       -1.02510000       1.61590000      -0.89190000
H       -0.84980000       1.82360000       0.85800000
H        0.79610000      -0.05850000       0.94670000
H       -0.73560000      -0.59980000       0.28570000
H       -1.03230000      -1.11530000      -2.21560000
H        0.36040000      -0.73640000      -3.34040000
H        0.42630000      -2.72300000      -0.93930000
H        3.97190000      -0.72410000      -2.48800000
H        2.40720000       1.12240000      -1.46830000
