19
Properties=species:S:1:pos:R:3 gdb_72132=T pbc="F F F"
C       -0.01940000       1.55110000      -0.05260000
C       -0.02210000       0.04520000      -0.06280000
C        0.42940000      -0.82850000      -1.24780000
C       -0.25140000      -1.94910000      -0.43610000
O        0.61050000      -2.08060000       0.70280000
C        0.37260000      -0.77150000       1.24950000
C       -1.12050000      -0.84720000       1.64660000
C       -1.29090000      -0.86860000       0.11860000
O       -2.45960000      -0.60520000      -0.57860000
H        1.00410000       1.93900000      -0.11180000
H       -0.57830000       1.94820000      -0.90610000
H       -0.47290000       1.95580000       0.85870000
H       -0.12980000      -0.56330000      -2.14880000
H        1.49330000      -0.95350000      -1.46470000
H       -0.53300000      -2.92100000      -0.84080000
H        1.16570000      -0.47150000       1.93160000
H       -1.42270000      -1.70480000       2.25290000
H       -1.50440000       0.08660000       2.06420000
H       -3.04110000      -1.37060000      -0.50830000
