21
Properties=species:S:1:pos:R:3 gdb_86746=T pbc="F F F"
C        0.44660000       1.67450000      -0.10390000
C       -0.04450000       0.23010000       0.01250000
O        0.44460000      -0.54850000      -1.08910000
C        1.23700000      -1.64900000      -0.63320000
C        1.18840000      -1.54370000       0.87040000
C        0.45350000      -0.50040000       1.23200000
C        0.71280000      -2.96890000      -1.18110000
C       -0.76470000      -3.22590000      -1.29540000
C        0.06790000      -3.02770000      -2.54000000
H        1.53830000       1.71440000      -0.04730000
H        0.13000000       2.10370000      -1.05870000
H        0.03190000       2.28810000       0.70320000
H       -1.14610000       0.23150000      -0.02660000
H        2.26910000      -1.51580000      -1.00170000
H        1.68940000      -2.24780000       1.52290000
H        0.22950000      -0.17670000       2.24090000
H        1.33650000      -3.81520000      -0.90290000
H       -1.13500000      -4.21940000      -1.06750000
H       -1.43360000      -2.41920000      -1.01810000
H       -0.05480000      -2.08850000      -3.06610000
H        0.27340000      -3.88500000      -3.17170000
