18
Properties=species:S:1:pos:R:3 gdb_91874=T pbc="F F F"
C       -0.16630000       1.49580000       0.07020000
C       -0.04810000      -0.00950000      -0.10040000
C        0.97490000      -0.44700000      -1.15640000
C        0.96490000      -1.95880000      -1.16970000
C        2.09610000      -2.78790000      -0.65350000
N        0.90690000      -2.55890000       0.16260000
C        0.99490000      -1.72420000       1.28780000
O        1.54500000      -2.03400000       2.30780000
O        0.34070000      -0.53690000       1.18900000
H        0.80620000       1.93270000       0.31570000
H       -0.53460000       1.95320000      -0.85310000
H       -0.86260000       1.73310000       0.87820000
H       -1.02930000      -0.43280000      -0.35620000
H        0.70960000      -0.03890000      -2.13530000
H        1.95890000      -0.04940000      -0.88230000
H        0.28200000      -2.42100000      -1.88010000
H        2.22690000      -3.80500000      -1.01010000
H        3.01020000      -2.28370000      -0.35140000
