20
Properties=species:S:1:pos:R:3 gdb_96046=T pbc="F F F"
C       -0.57560000       1.18320000       0.44390000
C        0.12020000      -0.13560000       0.11910000
C        1.09210000      -0.07640000      -1.08850000
O        2.26810000      -0.80930000      -0.72340000
C        1.94470000      -1.61200000       0.40620000
C        1.02300000      -0.72240000       1.23950000
N        1.80850000       0.28020000       1.94350000
C        1.51450000       0.70970000       3.19850000
O        0.56810000       0.33740000       3.86100000
H        0.15370000       1.97420000       0.64340000
H       -1.20330000       1.50790000      -0.39230000
H       -1.21180000       1.08450000       1.32820000
H       -0.64450000      -0.89400000      -0.08530000
H        0.64170000      -0.50980000      -1.99160000
H        1.39900000       0.94940000      -1.32380000
H        1.42400000      -2.53630000       0.10930000
H        2.87560000      -1.87990000       0.91220000
H        0.44320000      -1.25710000       1.99250000
H        2.61580000       0.66080000       1.47360000
H        2.25340000       1.45100000       3.56280000
