20
Properties=species:S:1:pos:R:3 gdb_112675=T pbc="F F F"
C       -0.06120000       1.52860000      -0.05580000
C       -0.01880000       0.00140000      -0.03100000
N       -1.33250000      -0.59470000       0.14830000
C       -1.38510000      -2.04140000      -0.09160000
C       -2.81100000      -2.38640000       0.34910000
O       -3.05390000      -3.73440000       0.63030000
C       -2.94840000      -1.50120000       1.58540000
O       -3.64250000      -1.77430000       2.53200000
C       -1.96450000      -0.34930000       1.44280000
H        0.93530000       1.93150000      -0.25970000
H       -0.74530000       1.88130000      -0.83310000
H       -0.39240000       1.94080000       0.90250000
H        0.37830000      -0.36620000      -0.98450000
H        0.68530000      -0.33830000       0.75520000
H       -1.18690000      -2.25910000      -1.14430000
H       -0.66860000      -2.61850000       0.52290000
H       -3.51040000      -1.99590000      -0.41140000
H       -3.58270000      -3.74470000       1.44180000
H       -1.26140000      -0.40540000       2.29750000
H       -2.46290000       0.62410000       1.49740000
