21
Properties=species:S:1:pos:R:3 gdb_64049=T pbc="F F F"
C        0.03420000       1.55110000      -0.02100000
C        0.03130000       0.01930000       0.00150000
C       -1.42490000      -0.50410000       0.04420000
C        0.74970000      -0.54300000      -1.25430000
C        1.10390000      -2.00230000      -1.15510000
C        1.19960000      -2.65830000      -0.00050000
C        0.97270000      -2.00540000       1.33610000
C        0.75380000      -0.49650000       1.25330000
O        1.12120000       0.23680000       2.14180000
H        1.05420000       1.94380000       0.00690000
H       -0.45370000       1.91700000      -0.93080000
H       -0.49520000       1.95800000       0.84380000
H       -1.98300000      -0.10370000      -0.80880000
H       -1.47050000      -1.59480000      -0.01010000
H       -1.93240000      -0.17940000       0.95820000
H        0.10920000      -0.37070000      -2.12950000
H        1.66250000       0.04090000      -1.44330000
H        1.30200000      -2.52400000      -2.08820000
H        1.46490000      -3.71240000       0.01030000
H        0.09340000      -2.44600000       1.83180000
H        1.81000000      -2.17930000       2.02110000
