22
Properties=species:S:1:pos:R:3 gdb_6204=T pbc="F F F"
C       -0.01270000       1.52220000       0.04810000
C        0.01240000       0.02660000       0.00840000
C       -0.32040000      -0.76530000      -1.01190000
C       -0.11750000      -2.24290000      -0.73150000
C       -1.33420000      -3.08880000      -1.14010000
C        1.13580000      -2.75660000      -1.47220000
C        0.09780000      -2.23850000       0.81430000
C        0.49490000      -0.79140000       1.19000000
H        0.98690000       1.92990000       0.24890000
H       -0.36850000       1.94760000      -0.89440000
H       -0.66190000       1.88740000       0.85440000
H       -0.66120000      -0.41210000      -1.98160000
H       -1.49030000      -3.06170000      -2.22470000
H       -1.19720000      -4.13780000      -0.85260000
H       -2.24760000      -2.72280000      -0.66020000
H        2.03110000      -2.20970000      -1.15980000
H        1.29970000      -3.82210000      -1.27230000
H        1.03210000      -2.63270000      -2.55600000
H       -0.84500000      -2.49510000       1.30850000
H        0.83740000      -2.98010000       1.13080000
H        1.58120000      -0.67560000       1.31670000
H        0.04730000      -0.46630000       2.13740000
