21
Properties=species:S:1:pos:R:3 gdb_73873=T pbc="F F F"
C        0.10720000       1.54610000       0.09060000
C       -0.00880000       0.04940000      -0.04190000
C       -1.15260000      -0.65000000      -0.01080000
C       -2.53170000      -0.06760000       0.16220000
C       -1.14760000      -2.16920000      -0.15040000
O       -0.54520000      -2.67220000      -1.33580000
C        0.85220000      -2.70070000      -1.30690000
O        1.46140000      -1.44510000      -1.39040000
C        1.33490000      -0.65110000      -0.21810000
H        0.79170000       1.80930000       0.90810000
H        0.53730000       1.97920000      -0.82200000
H       -0.84230000       2.04580000       0.28310000
H       -3.14900000      -0.27560000      -0.72160000
H       -3.04470000      -0.53610000       1.01280000
H       -2.53680000       1.00970000       0.32810000
H       -0.66060000      -2.62490000       0.73010000
H       -2.17760000      -2.53620000      -0.17210000
H        1.19460000      -3.21960000      -0.39010000
H        1.16740000      -3.25550000      -2.19370000
H        2.12900000       0.09750000      -0.28950000
H        1.55380000      -1.27070000       0.66980000
