18
Properties=species:S:1:pos:R:3 gdb_79217=T pbc="F F F"
C       -0.04240000       1.51120000       0.05480000
N        0.10340000       0.06350000      -0.01250000
C        0.78790000      -0.54140000      -1.14590000
C        2.31650000      -0.58600000      -0.86720000
C        2.51260000       0.01600000       0.51860000
C        1.11530000      -0.61290000       0.86530000
C        0.74240000      -0.89400000       2.22230000
C        0.44860000      -1.12590000       3.36520000
C        1.36940000      -1.63930000      -0.32560000
H        0.86820000       2.08010000      -0.18740000
H       -0.82550000       1.81570000      -0.64760000
H       -0.37000000       1.78640000       1.06220000
H        0.36840000      -0.56820000      -2.14380000
H        3.04620000      -0.69860000      -1.65850000
H        3.29720000      -0.50630000       1.07010000
H        2.63070000       1.09680000       0.64200000
H        0.18050000      -1.33290000       4.37170000
H        1.32190000      -2.71610000      -0.38470000
