19
Properties=species:S:1:pos:R:3 gdb_66763=T pbc="F F F"
C       -0.02070000       1.51990000       0.01490000
C        0.02130000       0.01870000      -0.03210000
C        0.57830000      -0.89640000      -1.18950000
C       -0.45520000      -1.90160000      -0.75790000
C        0.92570000      -1.88330000      -0.10790000
C        0.79730000      -0.83010000       1.03770000
C       -0.21990000      -1.18790000       2.08830000
C       -1.43280000      -1.20400000       1.51740000
C       -1.27900000      -0.85760000       0.06030000
H        0.98540000       1.94870000      -0.05580000
H       -0.61610000       1.92750000      -0.80990000
H       -0.46810000       1.86140000       0.95530000
H        1.02670000      -0.68030000      -2.14820000
H       -0.82520000      -2.76870000      -1.28930000
H        1.58970000      -2.73670000      -0.15250000
H        1.75440000      -0.42530000       1.37110000
H        0.01550000      -1.46570000       3.10910000
H       -2.36340000      -1.49720000       1.98930000
H       -2.15420000      -0.47700000      -0.46880000
