15
Properties=species:S:1:pos:R:3 gdb_17878=T pbc="F F F"
O        0.00360000       0.00910000       0.11260000
C       -0.01350000       1.19970000       0.03310000
C       -1.05670000       2.31640000      -0.02720000
C       -1.23760000       2.86830000       1.42460000
N       -0.01750000       3.55570000       1.85360000
C        1.20710000       2.90090000       1.38770000
C        0.99720000       2.34380000      -0.05820000
O       -0.05030000       3.14030000      -0.68830000
H       -1.98150000       2.20460000      -0.59640000
H       -2.06940000       3.57660000       1.46810000
H       -1.47510000       2.03800000       2.10170000
H       -0.03610000       4.47660000       1.43260000
H        2.02060000       3.63120000       1.40630000
H        1.48700000       2.07750000       2.05700000
H        1.90700000       2.25650000      -0.65510000
