21
Properties=species:S:1:pos:R:3 gdb_97938=T pbc="F F F"
C        0.08690000       1.52300000       0.19530000
C       -0.02440000      -0.01250000       0.20680000
C       -1.38150000      -0.49030000      -0.03890000
C       -2.51130000      -0.85760000      -0.23680000
C       -3.86660000      -1.34350000      -0.48220000
C       -3.94970000      -2.86200000      -0.44910000
O       -4.09370000      -3.48810000       0.82580000
C       -5.16760000      -3.61860000      -0.11500000
C       -6.49830000      -3.01210000       0.25190000
H        1.11920000       1.83270000       0.38400000
H       -0.22330000       1.92810000      -0.77180000
H       -0.55180000       1.96430000       0.96530000
H        0.65290000      -0.43330000      -0.54770000
H        0.32710000      -0.39740000       1.17280000
H       -4.55430000      -0.92270000       0.25820000
H       -4.21200000      -0.99800000      -1.46690000
H       -3.22030000      -3.34840000      -1.09930000
H       -5.24200000      -4.61970000      -0.54650000
H       -6.39230000      -2.01230000       0.67720000
H       -7.14500000      -2.95090000      -0.63030000
H       -7.00440000      -3.63970000       0.99290000
