19
Properties=species:S:1:pos:R:3 gdb_97283=T pbc="F F F"
C        0.05540000       1.43910000       0.07340000
N       -0.06810000      -0.00140000       0.04180000
C        0.62390000      -0.63120000      -0.80990000
N        0.60230000      -2.01870000      -0.94970000
C       -0.20740000      -2.80030000      -0.13300000
O       -0.27090000      -4.00650000      -0.20410000
C        1.41270000      -2.69780000      -1.94010000
C        1.67170000      -2.12940000      -3.30690000
C        2.80030000      -2.24810000      -2.30190000
H        0.76150000       1.84050000      -0.67220000
H       -0.92550000       1.89720000      -0.09840000
H        0.38520000       1.75920000       1.06850000
H        1.30260000      -0.13420000      -1.51350000
H       -0.77540000      -2.18630000       0.57760000
H        1.23180000      -3.76090000      -1.86250000
H        1.64430000      -2.81020000      -4.15030000
H        1.30230000      -1.13460000      -3.53180000
H        3.17850000      -1.33210000      -1.86110000
H        3.55650000      -3.01140000      -2.44750000
