15
Properties=species:S:1:pos:R:3 gdb_21225=T pbc="F F F"
C       -0.01960000       1.42430000      -0.02780000
N        0.00010000      -0.02460000       0.11790000
C       -1.19690000      -0.70280000       0.06290000
N       -2.37080000      -0.11150000       0.11200000
O       -3.30970000      -1.15100000       0.07370000
C       -2.65600000      -2.32800000       0.01240000
C       -1.31460000      -2.13190000      -0.00190000
N       -0.21800000      -3.00550000      -0.13050000
H        1.00120000       1.80250000       0.06240000
H       -0.44590000       1.75520000      -0.98510000
H       -0.62630000       1.85670000       0.77150000
H        0.72490000      -0.49450000      -0.40830000
H       -3.27280000      -3.21280000      -0.02380000
H       -0.50560000      -3.97050000      -0.23610000
H        0.40460000      -2.94450000       0.66950000
