23
Properties=species:S:1:pos:R:3 gdb_109374=T pbc="F F F"
C       -0.03010000       1.56460000      -0.01880000
C        0.04550000       0.02780000       0.05020000
C        0.63160000      -0.52990000      -1.25840000
C        0.95700000      -2.02100000      -1.15390000
C        2.00230000      -2.25930000      -0.05770000
C        1.68740000      -1.48680000       1.19520000
C        0.81330000      -0.48000000       1.26240000
C        0.49640000       0.19210000       2.57660000
O        1.07830000      -0.51560000       3.65730000
H        0.97240000       2.00600000      -0.05180000
H       -0.56110000       1.87500000      -0.92500000
H       -0.56120000       1.99650000       0.83450000
H       -0.99070000      -0.33830000       0.14140000
H       -0.06950000      -0.33890000      -2.07930000
H        1.55070000       0.02300000      -1.49840000
H        0.04170000      -2.57570000      -0.90920000
H        1.31250000      -2.40750000      -2.11530000
H        2.07070000      -3.32860000       0.17960000
H        3.00250000      -1.98000000      -0.42380000
H        2.19350000      -1.78950000       2.10620000
H        0.85560000       1.23440000       2.55690000
H       -0.60210000       0.24970000       2.68940000
H        0.98520000       0.02380000       4.44700000
