12
Properties=species:S:1:pos:R:3 gdb_42618=T pbc="F F F"
O       -0.06910000       0.06510000       0.25680000
C       -0.12180000       1.23060000       0.06250000
C       -1.14710000       2.27010000      -0.20110000
C       -0.67960000       3.57490000       0.50780000
O        0.19460000       3.49790000       1.60830000
C        1.27740000       2.72660000       1.21950000
O        2.19880000       2.48550000       1.92240000
N        1.01510000       2.22350000      -0.11920000
C        0.01070000       3.15530000      -0.70890000
H       -2.16190000       2.14600000      -0.55490000
H       -1.38880000       4.38840000       0.57370000
H        0.16620000       3.63140000      -1.66580000
