21
Properties=species:S:1:pos:R:3 gdb_77080=T pbc="F F F"
C       -0.39560000       1.24190000      -0.14850000
C       -0.02650000      -0.21590000       0.07110000
C        1.24330000      -0.76350000      -0.63620000
O        1.74110000      -1.31830000       0.60250000
C        0.67650000      -0.68850000       1.38310000
C        1.26040000       0.39820000       2.27890000
C       -0.08490000      -1.73440000       2.18450000
C        1.06550000      -1.74460000      -1.69300000
C        0.90190000      -2.54510000      -2.57510000
H        0.45180000       1.91250000       0.02270000
H       -0.73910000       1.39630000      -1.17690000
H       -1.20790000       1.54910000       0.51880000
H       -0.88760000      -0.85310000      -0.14540000
H        1.90460000       0.04070000      -0.99240000
H        1.85080000       1.11710000       1.70550000
H        0.47130000       0.94230000       2.80920000
H        1.92000000      -0.05730000       3.02420000
H        0.56200000      -2.18000000       2.94730000
H       -0.94670000      -1.28310000       2.68900000
H       -0.44180000      -2.53430000       1.53040000
H        0.76510000      -3.25600000      -3.35210000
