16
Properties=species:S:1:pos:R:3 gdb_1734=T pbc="F F F"
C       -0.00620000       1.57280000      -0.23780000
C       -0.02800000       0.06770000      -0.07640000
C       -1.33610000      -0.51860000       0.45750000
C       -1.73610000       0.03420000       1.74780000
C       -2.05770000       0.50350000       2.80670000
C        0.79060000      -0.76630000      -0.99300000
N        1.17360000      -0.61560000       0.42520000
H        0.94930000       1.90830000      -0.65350000
H       -0.80180000       1.90860000      -0.91270000
H       -0.15920000       2.06740000       0.72650000
H       -2.13370000      -0.34410000      -0.27740000
H       -1.21680000      -1.60370000       0.54660000
H       -2.34470000       0.90480000       3.74680000
H        0.46120000      -1.76400000      -1.27220000
H        1.37890000      -0.25870000      -1.75330000
H        1.94200000       0.04540000       0.50990000
