16
Properties=species:S:1:pos:R:3 gdb_18796=T pbc="F F F"
O        0.18670000       1.38070000       0.08410000
C        0.00770000      -0.00310000       0.00610000
C       -1.43700000      -0.60750000       0.02920000
C       -2.40010000       0.15810000      -0.91130000
C       -1.68390000      -0.47660000      -2.12210000
O       -0.40250000       0.16260000      -2.38250000
C        0.24820000      -0.65280000      -1.37490000
C       -1.01780000      -1.52720000      -1.18560000
H       -0.03440000       1.71850000      -0.79540000
H        0.62320000      -0.47600000       0.77920000
H       -1.81780000      -0.96630000       0.98450000
H       -3.42090000      -0.22790000      -0.82500000
H       -2.42120000       1.25010000      -0.85170000
H       -2.22980000      -0.67060000      -3.04710000
H        1.24770000      -0.96600000      -1.68210000
H       -1.08810000      -2.60820000      -1.25490000
