17
Properties=species:S:1:pos:R:3 gdb_85351=T pbc="F F F"
C       -0.02530000       1.62150000      -0.02800000
C        0.02290000       0.08380000       0.00000000
C        0.75640000      -0.53640000      -1.21240000
C        1.94990000      -1.31390000      -0.64150000
O        2.79350000      -1.90810000      -1.26890000
C        1.85990000      -1.20360000       0.83830000
C        0.80030000      -0.45510000       1.18880000
C        0.40850000      -0.20780000       2.59080000
O       -0.57670000       0.41370000       2.91800000
H        0.98490000       2.04160000      -0.08590000
H       -0.58410000       1.96520000      -0.90360000
H       -0.51230000       2.00940000       0.86860000
H       -1.00850000      -0.28190000       0.06580000
H        0.12660000      -1.22590000      -1.78330000
H        1.11720000       0.21700000      -1.91930000
H        2.56430000      -1.68400000       1.50740000
H        1.08840000      -0.65300000       3.34860000
