15
Properties=species:S:1:pos:R:3 gdb_123934=T pbc="F F F"
C       -0.00780000       1.42220000       0.05540000
C        1.44120000       1.94740000      -0.00120000
O        2.22220000       1.48080000       1.12270000
C        1.96250000       0.17850000       1.33210000
C        0.93250000      -0.58200000       0.83290000
N       -0.10940000      -0.04020000       0.06340000
N        1.07500000      -1.85390000       1.28490000
N        2.14070000      -1.92320000       2.03730000
N        2.68800000      -0.67580000       2.08180000
H       -0.47700000       1.80970000       0.96810000
H       -0.56420000       1.82160000      -0.79640000
H        1.93240000       1.61880000      -0.92590000
H        1.46940000       3.03730000       0.05380000
H       -0.16930000      -0.44170000      -0.86480000
H        3.51430000      -0.50480000       2.63080000
