23
Properties=species:S:1:pos:R:3 gdb_100809=T pbc="F F F"
C        0.37070000       1.81490000      -0.25810000
C        0.20990000       0.30740000      -0.05170000
C        0.58050000      -0.53260000      -1.28700000
C        0.56990000      -2.03930000      -0.96700000
N       -0.22620000      -0.15060000      -2.46270000
C        0.40260000      -0.44430000      -3.74230000
C       -1.61010000      -0.59530000      -2.41800000
C       -2.46650000       0.21290000      -3.29910000
N       -3.14520000       0.83430000      -3.99740000
H        1.41270000       2.07120000      -0.48040000
H       -0.24000000       2.16120000      -1.09530000
H        0.07650000       2.36830000       0.63870000
H        0.84550000      -0.02720000       0.77720000
H       -0.81760000       0.07980000       0.26240000
H        1.60700000      -0.25850000      -1.56100000
H        1.30810000      -2.26810000      -0.19230000
H       -0.40640000      -2.36760000      -0.59340000
H        0.81610000      -2.64130000      -1.84720000
H        0.49910000      -1.52480000      -3.95510000
H       -0.18470000       0.00280000      -4.55010000
H        1.40110000       0.00010000      -3.76810000
H       -1.74850000      -1.65500000      -2.70350000
H       -1.99730000      -0.49280000      -1.40010000
