21
Properties=species:S:1:pos:R:3 gdb_91360=T pbc="F F F"
C       -0.13120000       1.57510000      -0.02950000
C        0.02510000       0.05490000      -0.00250000
C        0.76210000      -0.57370000      -1.22770000
C        1.71680000      -1.56930000      -0.53170000
C        2.92360000      -0.81240000       0.05990000
C        2.27040000      -0.16320000       1.32200000
O        2.39490000       1.24390000       1.42480000
C        0.79780000      -0.61520000       1.16390000
O        0.98680000      -1.94420000       0.65550000
H        0.82690000       2.08000000      -0.15320000
H       -0.79100000       1.86690000      -0.85400000
H       -0.58110000       1.94340000       0.89880000
H       -0.97670000      -0.38610000       0.04780000
H        0.06780000      -1.08670000      -1.89750000
H        1.30480000       0.17320000      -1.81450000
H        1.96010000      -2.46510000      -1.10330000
H        3.72860000      -1.50020000       0.33030000
H        3.32620000      -0.04840000      -0.61110000
H        2.66450000      -0.64010000       2.22920000
H        3.31210000       1.44740000       1.62970000
H        0.24560000      -0.65480000       2.10370000
