20
Properties=species:S:1:pos:R:3 gdb_101560=T pbc="F F F"
C       -0.11680000       1.65470000       0.07250000
C        0.02120000       0.12870000      -0.00730000
C       -1.33200000      -0.58090000      -0.01240000
O       -1.98490000      -0.23770000      -1.23100000
N        0.75550000      -0.28530000      -1.19910000
C        2.08760000      -0.50040000      -1.21640000
O        2.81040000      -0.40110000      -0.23210000
C        2.70140000      -0.90050000      -2.56410000
O        4.07290000      -1.11360000      -2.41280000
H        0.87100000       2.12120000       0.05400000
H       -0.70540000       2.03500000      -0.76650000
H       -0.61610000       1.94630000       1.00250000
H        0.59850000      -0.22590000       0.85090000
H       -1.17660000      -1.66700000       0.05800000
H       -1.91790000      -0.25860000       0.86070000
H       -2.80290000      -0.73810000      -1.29470000
H        0.21950000      -0.35360000      -2.05140000
H        2.19530000      -1.80760000      -2.93230000
H        2.49940000      -0.10220000      -3.29700000
H        4.23800000      -0.92830000      -1.47160000
