13
Properties=species:S:1:pos:R:3 gdb_25346=T pbc="F F F"
O       -0.06670000      -0.02770000      -0.00140000
C       -0.01400000       1.17690000       0.00820000
C        1.26270000       1.94450000       0.00100000
C        1.23270000       3.30310000       0.01290000
C        2.45190000       4.09340000       0.00650000
O        2.54700000       5.28900000       0.01580000
O        3.63890000       3.33710000      -0.01280000
C        3.63840000       1.99310000      -0.02430000
C        2.51580000       1.25050000      -0.01850000
H       -0.93020000       1.80420000       0.02380000
H        0.30350000       3.86150000       0.02780000
H        4.64580000       1.59390000      -0.03860000
H        2.54610000       0.17050000      -0.02810000
