18
Properties=species:S:1:pos:R:3 gdb_51859=T pbc="F F F"
N       -0.10890000       1.30570000       0.13400000
C       -0.07500000       0.04610000       0.19040000
O       -0.89610000      -0.68840000      -0.58620000
C       -0.89800000      -2.10880000      -0.39140000
C       -2.05770000      -2.50170000       0.53330000
O       -2.22480000      -3.90460000       0.53750000
C       -2.63050000      -4.41610000      -0.71960000
C       -1.88060000      -3.81810000      -1.87660000
C       -1.07560000      -2.76980000      -1.72950000
H        0.58640000       1.70020000       0.76390000
H        0.58800000      -0.56330000       0.82170000
H        0.05850000      -2.40930000       0.06190000
H       -1.85970000      -2.20450000       1.56710000
H       -2.96490000      -1.98090000       0.19030000
H       -2.46850000      -5.49930000      -0.67350000
H       -3.71530000      -4.26230000      -0.86650000
H       -2.03540000      -4.27770000      -2.84900000
H       -0.53340000      -2.33620000      -2.56390000
