17
Properties=species:S:1:pos:R:3 gdb_27313=T pbc="F F F"
C        0.03090000       1.49200000      -0.11960000
C       -0.05740000       0.00570000       0.01620000
N       -1.12140000      -0.65470000      -0.21700000
C       -1.12790000      -2.05970000      -0.06650000
N       -2.16810000      -2.77020000      -0.28760000
C        0.12940000      -2.68640000       0.36200000
C        0.19210000      -4.17170000       0.54120000
C        1.17920000      -1.88570000       0.57600000
O        1.13310000      -0.52630000       0.41520000
H        0.80080000       1.76040000      -0.85010000
H       -0.93320000       1.88500000      -0.43810000
H        0.31850000       1.94310000       0.83550000
H       -2.93180000      -2.15360000      -0.57340000
H       -0.06670000      -4.67820000      -0.39380000
H        1.18550000      -4.49720000       0.86250000
H       -0.54820000      -4.49660000       1.27880000
H        2.16250000      -2.20930000       0.89310000
