18
Properties=species:S:1:pos:R:3 gdb_2345=T pbc="F F F"
C       -0.26910000       1.34760000      -0.00700000
O       -0.16960000      -0.05300000      -0.07820000
C        0.78500000      -0.48580000      -1.02600000
C        0.80260000      -1.99090000      -1.01440000
N       -0.08240000      -2.68530000      -1.96420000
C        1.37620000      -2.82830000      -2.10330000
C        2.01110000      -2.28470000      -3.36270000
H        0.68730000       1.81320000       0.28300000
H       -0.58310000       1.78620000      -0.96780000
H       -1.02010000       1.58550000       0.75050000
H        0.52940000      -0.11490000      -2.02970000
H        1.78390000      -0.09140000      -0.76580000
H        0.87320000      -2.39760000      -0.00650000
H       -0.49150000      -3.51040000      -1.53530000
H        1.80850000      -3.77130000      -1.76820000
H        1.52260000      -1.36470000      -3.69020000
H        3.07580000      -2.07870000      -3.20690000
H        1.92630000      -3.01300000      -4.17640000
