23
Properties=species:S:1:pos:R:3 gdb_91351=T pbc="F F F"
C       -1.04660000       0.96910000       0.06180000
C       -0.09520000      -0.22150000       0.03200000
C        1.20860000      -0.17760000      -0.82610000
C        1.98170000      -0.83250000       0.34650000
O        2.73180000       0.11770000       1.12060000
C        1.63620000       0.29140000       2.05820000
C        1.30430000       1.75170000       2.30170000
C        0.73160000      -0.70940000       1.27000000
C        0.13330000      -1.83320000       2.09170000
H       -0.53380000       1.91650000       0.23800000
H       -1.57070000       1.05560000      -0.89680000
H       -1.80870000       0.85070000       0.84060000
H       -0.67630000      -1.09590000      -0.28590000
H        1.17020000      -0.74320000      -1.76070000
H        1.58770000       0.82630000      -1.03430000
H        2.53270000      -1.75940000       0.16220000
H        1.90970000      -0.16530000       3.02210000
H        0.40620000       1.85160000       2.92070000
H        2.13470000       2.22770000       2.83390000
H        1.15470000       2.29590000       1.36810000
H       -0.70470000      -1.47140000       2.70140000
H       -0.25010000      -2.63580000       1.45230000
H        0.87070000      -2.27110000       2.77330000
