18
Properties=species:S:1:pos:R:3 gdb_114796=T pbc="F F F"
C        0.07430000       1.22470000      -0.26450000
O       -0.00080000      -0.08990000       0.24070000
C       -1.29020000      -0.61800000       0.20860000
C       -1.87160000      -1.10140000      -1.16450000
C       -2.22500000      -2.45830000      -0.51130000
O       -1.50370000      -3.58370000      -1.05650000
C       -0.37500000      -3.66290000      -0.30180000
N       -0.21030000      -2.89210000       0.69140000
C       -1.41920000      -2.06250000       0.76610000
H        1.11300000       1.54870000      -0.16880000
H       -0.21610000       1.27770000      -1.32480000
H       -0.56930000       1.91490000       0.30370000
H       -1.99720000       0.05720000       0.71820000
H       -2.70420000      -0.52850000      -1.57780000
H       -1.09680000      -1.21740000      -1.92610000
H       -3.27890000      -2.72530000      -0.44360000
H        0.32240000      -4.42840000      -0.62360000
H       -1.87160000      -2.14750000       1.75720000
