13
Properties=species:S:1:pos:R:3 gdb_15108=T pbc="F F F"
N       -0.07110000      -0.93700000      -0.81520000
C       -0.00030000       0.07300000      -0.26060000
C        0.07600000       1.35600000       0.45140000
C        1.37190000       2.01410000       0.31150000
C        2.43480000       2.56320000       0.18950000
C        3.70970000       3.21900000       0.07390000
C        4.47240000       3.20320000      -1.19090000
O        3.78210000       4.37400000      -0.77570000
H       -0.72270000       2.00760000       0.07410000
H       -0.15050000       1.17620000       1.51010000
H        4.26920000       3.31810000       1.00310000
H        5.55950000       3.25350000      -1.14940000
H        4.05190000       2.68850000      -2.05220000
