21
Properties=species:S:1:pos:R:3 gdb_77079=T pbc="F F F"
C       -0.22850000       1.41320000      -0.12470000
C       -0.02410000      -0.08580000       0.04360000
C        1.17660000      -0.66360000      -0.77830000
N        1.94950000      -0.80400000       0.47590000
C        0.73110000      -0.60410000       1.32230000
C        0.97450000       0.38000000       2.46130000
C        0.13090000      -1.91020000       1.85150000
C        0.89040000      -1.90900000      -1.49310000
N        0.68150000      -2.90590000      -2.04220000
H        0.71110000       1.96530000      -0.02800000
H       -0.64490000       1.63170000      -1.11370000
H       -0.92760000       1.80160000       0.62250000
H       -0.96340000      -0.61340000      -0.13360000
H        1.63040000       0.03990000      -1.48630000
H        2.42460000      -1.69380000       0.59230000
H        1.44060000       1.30000000       2.10320000
H        0.03930000       0.63370000       2.97250000
H        1.64740000      -0.06590000       3.20210000
H        0.80650000      -2.37760000       2.57730000
H       -0.82200000      -1.72340000       2.35930000
H       -0.05070000      -2.62650000       1.04450000
