16
Properties=species:S:1:pos:R:3 gdb_33588=T pbc="F F F"
C        0.05750000      -1.11860000       0.00460000
C        0.00730000       0.08510000      -0.01260000
C       -0.06790000       1.49700000      -0.03970000
C        0.13070000       2.51870000       1.09020000
C        1.15430000       2.45540000       0.00610000
N        0.67890000       3.66190000      -0.72490000
C       -0.12720000       3.11600000      -1.88260000
C       -1.02490000       2.42440000      -0.84280000
C       -0.57540000       3.53270000       0.16600000
H        0.10070000      -2.17900000       0.02160000
H        0.19470000       2.38280000       2.16060000
H        2.17820000       2.10670000       0.00190000
H       -0.62100000       3.94490000      -2.39820000
H        0.43280000       2.50480000      -2.59600000
H       -2.04890000       2.09510000      -1.01090000
H       -1.12660000       4.43120000       0.43290000
