23
Properties=species:S:1:pos:R:3 gdb_94696=T pbc="F F F"
C       -0.68890000       1.31720000       0.02600000
C        0.09190000       0.00180000      -0.02870000
C        1.09760000       0.01560000      -1.20370000
O        2.20950000      -0.85450000      -1.02220000
C        2.64730000      -0.98450000       0.33400000
C        4.05050000      -1.54440000       0.29780000
C        1.52650000      -1.69460000       1.14720000
C        0.87600000      -0.28920000       1.26620000
C        2.31490000       0.29780000       1.15730000
H       -0.02520000       2.16110000       0.24700000
H       -1.18540000       1.52700000      -0.92790000
H       -1.45980000       1.28490000       0.80260000
H       -0.62220000      -0.81940000      -0.17590000
H        0.61900000      -0.28650000      -2.14050000
H        1.45910000       1.04590000      -1.34700000
H        4.72850000      -0.85150000      -0.21040000
H        4.42260000      -1.71960000       1.31140000
H        4.06610000      -2.49310000      -0.24810000
H        0.96980000      -2.47920000       0.62730000
H        1.89030000      -2.06680000       2.10930000
H        0.28600000      -0.06260000       2.15810000
H        2.83180000       0.27910000       2.11990000
H        2.46710000       1.27410000       0.68990000
