18
Properties=species:S:1:pos:R:3 gdb_75778=T pbc="F F F"
C       -0.12780000       1.38330000       0.04510000
N        0.03730000      -0.04660000      -0.00030000
C        0.00720000      -0.93600000      -1.04600000
O       -0.03690000      -0.77390000      -2.23730000
C        0.04300000      -2.13900000      -0.08120000
C        0.04430000      -1.06980000       1.07100000
C        1.30210000      -1.04440000       1.94530000
C       -1.17060000      -1.04930000       1.88350000
C       -2.16340000      -1.00700000       2.56020000
H        0.73650000       1.88010000       0.50110000
H       -0.23100000       1.73370000      -0.98450000
H       -1.02850000       1.65560000       0.60800000
H       -0.84430000      -2.77120000      -0.11990000
H        0.94470000      -2.75140000      -0.13570000
H        2.19550000      -1.06510000       1.31460000
H        1.32880000      -0.14260000       2.56380000
H        1.31730000      -1.91030000       2.61290000
H       -3.04550000      -0.98070000       3.15160000
