20
Properties=species:S:1:pos:R:3 gdb_15716=T pbc="F F F"
C       -0.05950000       1.59490000       0.07200000
C        0.00890000       0.06470000       0.12980000
C       -1.35080000      -0.60820000      -0.06600000
C       -2.01550000      -0.39610000      -1.43470000
O       -2.97950000      -1.43940000      -1.57320000
C       -2.68440000      -2.48700000      -0.65560000
C       -1.34450000      -2.14430000       0.00800000
O       -0.23220000      -2.60990000      -0.74760000
H        0.92430000       2.03830000       0.25400000
H       -0.40270000       1.94710000      -0.90650000
H       -0.74790000       1.99260000       0.82650000
H        0.70320000      -0.31110000      -0.62780000
H        0.41900000      -0.24410000       1.09950000
H       -2.04470000      -0.25400000       0.70870000
H       -2.53610000       0.56250000      -1.52110000
H       -1.26700000      -0.45990000      -2.23850000
H       -3.48640000      -2.56150000       0.09410000
H       -2.63480000      -3.44520000      -1.19150000
H       -1.29410000      -2.51370000       1.04240000
H       -0.31080000      -3.56390000      -0.84180000
