20
Properties=species:S:1:pos:R:3 gdb_112771=T pbc="F F F"
C       -0.12410000       1.50720000      -0.33020000
C        0.00850000       0.00270000      -0.07410000
C       -1.34090000      -0.64790000       0.15640000
O       -2.21310000      -0.56350000      -0.99160000
C       -2.51990000      -1.97240000      -0.95410000
C       -2.35310000      -2.65020000      -2.29520000
C       -1.46250000      -2.20590000       0.17540000
C       -0.27580000      -2.95940000      -0.18930000
N        0.66690000      -3.56030000      -0.48530000
H        0.85350000       1.95750000      -0.52280000
H       -0.76350000       1.69310000      -1.19760000
H       -0.56650000       2.02010000       0.53090000
H        0.50020000      -0.48470000      -0.92280000
H        0.63660000      -0.18400000       0.80650000
H       -1.82800000      -0.21020000       1.04000000
H       -3.53540000      -2.13410000      -0.56690000
H       -1.33180000      -2.54440000      -2.66930000
H       -2.58850000      -3.71670000      -2.21810000
H       -3.03870000      -2.19780000      -3.01800000
H       -1.87340000      -2.61550000       1.09980000
