21
Properties=species:S:1:pos:R:3 gdb_78034=T pbc="F F F"
C        0.02800000       1.58630000       0.00410000
C        0.05220000       0.06660000       0.08050000
O        0.76400000      -0.44650000      -1.06360000
C        1.19800000      -1.77150000      -0.74700000
C        1.51030000      -1.77250000       0.74360000
C        1.58580000      -3.09640000       1.46220000
C        2.28710000      -0.56100000       1.19960000
O        3.04200000       0.24820000       0.34650000
C        0.77680000      -0.53880000       1.27250000
H        1.03740000       1.99570000       0.08970000
H       -0.41320000       1.91470000      -0.94130000
H       -0.57650000       1.98990000       0.82220000
H       -0.98150000      -0.31720000       0.05690000
H        0.40800000      -2.50690000      -0.96850000
H        2.06120000      -1.99040000      -1.38490000
H        2.39710000      -3.71890000       1.06680000
H        1.77340000      -2.95490000       2.53090000
H        0.65170000      -3.66250000       1.36090000
H        2.80230000      -0.66340000       2.15010000
H        2.55250000       0.31230000      -0.48570000
H        0.27600000      -0.53730000       2.23520000
