18
Properties=species:S:1:pos:R:3 gdb_88065=T pbc="F F F"
C       -0.12300000       1.29290000      -0.21370000
N        0.07030000      -0.13240000       0.01850000
C        1.43450000      -0.64960000      -0.09610000
C        0.76670000      -0.53620000       1.21900000
C        1.13000000       0.28980000       2.45300000
O        0.61090000      -0.74990000       3.31290000
C        0.27220000      -1.60910000       2.20300000
C       -1.21390000      -1.90120000       2.12660000
O       -1.67560000      -2.90150000       1.64610000
H        0.72410000       1.91580000       0.11780000
H       -0.26890000       1.45850000      -1.28480000
H       -1.02420000       1.62860000       0.30850000
H        1.53890000      -1.61470000      -0.58510000
H        2.23520000       0.06120000      -0.30260000
H        2.19950000       0.46420000       2.62150000
H        0.58630000       1.23450000       2.57650000
H        0.83720000      -2.54850000       2.20610000
H       -1.84800000      -1.09030000       2.55040000
