20
Properties=species:S:1:pos:R:3 gdb_73636=T pbc="F F F"
C       -0.03270000       1.53180000      -0.00850000
C       -0.02310000       0.01260000       0.02010000
C       -1.40210000      -0.66490000      -0.08960000
C       -1.23530000      -2.04250000       0.58250000
C       -0.26230000      -1.77110000       1.74820000
C        0.71990000      -0.73480000       1.19250000
N        1.65970000      -1.23350000       0.17790000
C        1.04160000      -0.64960000      -0.90000000
O        1.25950000      -0.67120000      -2.08310000
H        0.97100000       1.94280000       0.14060000
H       -0.39570000       1.89060000      -0.97700000
H       -0.68810000       1.93780000       0.76990000
H       -2.13840000      -0.06380000       0.45920000
H       -1.74190000      -0.73140000      -1.12720000
H       -2.18440000      -2.47060000       0.91430000
H       -0.78970000      -2.75320000      -0.12130000
H       -0.79990000      -1.32440000       2.59370000
H        0.23520000      -2.67240000       2.12050000
H        1.19770000      -0.11350000       1.95510000
H        2.40300000      -1.91610000       0.22680000
