19
Properties=species:S:1:pos:R:3 gdb_74855=T pbc="F F F"
C        0.06030000       1.49420000       0.02120000
C       -0.02200000       0.00090000      -0.00420000
C       -0.11400000      -0.77680000      -1.09490000
C       -0.05630000      -2.21880000      -0.72340000
O        1.18430000      -2.60020000      -0.07250000
C        0.05800000      -2.26740000       0.74350000
C        0.03430000      -0.84350000       1.23640000
C        0.76750000      -0.43280000       2.49590000
C       -0.73180000      -0.49230000       2.49890000
H        1.02710000       1.83390000       0.41320000
H       -0.05680000       1.91000000      -0.98260000
H       -0.71350000       1.93450000       0.66200000
H       -0.17370000      -0.41930000      -2.11560000
H       -0.51430000      -2.99840000      -1.32430000
H       -0.33060000      -3.07300000       1.36250000
H        1.32220000      -1.20210000       3.02170000
H        1.24040000       0.54310000       2.50910000
H       -1.28660000       0.43920000       2.51680000
H       -1.21660000      -1.30940000       3.02390000
