15
Properties=species:S:1:pos:R:3 gdb_11429=T pbc="F F F"
C        0.12920000       1.34350000      -0.07800000
O        0.13130000      -0.07690000      -0.02680000
C        0.64900000      -0.59700000       1.14970000
C        0.57780000      -2.13460000       1.07620000
N        1.94350000      -2.44350000       0.72180000
C        2.80020000      -1.39960000       0.95560000
O        3.99650000      -1.38410000       0.89930000
O        2.04050000      -0.29970000       1.29190000
H        1.14760000       1.74510000      -0.05290000
H       -0.35110000       1.62260000      -1.01720000
H       -0.44330000       1.76750000       0.76010000
H        0.14620000      -0.16500000       2.02480000
H        0.27820000      -2.56860000       2.03860000
H       -0.13820000      -2.43240000       0.30660000
H        2.31410000      -3.37590000       0.66520000
