17
Properties=species:S:1:pos:R:3 gdb_23411=T pbc="F F F"
O       -0.13050000       1.36450000      -0.07470000
N        0.00030000      -0.04010000      -0.13240000
C       -1.13680000      -0.60880000       0.02270000
C       -2.47410000      -0.07180000       0.23600000
C       -3.33010000      -1.10710000       0.38310000
N       -2.71510000      -2.35940000       0.40900000
C       -2.90580000      -3.26660000      -0.77480000
C       -1.48620000      -2.90660000      -1.28250000
C       -1.27890000      -2.11440000       0.04390000
H        0.78060000       1.65430000      -0.18620000
H       -2.71330000       0.97840000       0.28040000
H       -4.40860000      -1.05810000       0.48510000
H       -3.03050000      -4.30660000      -0.46220000
H       -3.74040000      -2.98340000      -1.42140000
H       -0.80470000      -3.74430000      -1.43580000
H       -1.47670000      -2.26920000      -2.16760000
H       -0.57890000      -2.58830000       0.73550000
