17
Properties=species:S:1:pos:R:3 gdb_18627=T pbc="F F F"
C       -0.09530000       1.45950000       0.03900000
N        0.04960000       0.01410000      -0.06990000
C        0.55470000      -0.65960000      -1.24020000
C        1.33820000       0.13500000      -2.28750000
C        2.55800000       0.73510000      -1.55430000
C        2.60130000       0.07720000      -0.16700000
O        3.53350000       0.11930000       0.59740000
C        1.32790000      -0.69270000       0.05410000
H        0.58920000       2.06510000      -0.56950000
H       -1.11790000       1.71730000      -0.25450000
H        0.03600000       1.74440000       1.08660000
H       -0.02680000      -1.51640000      -1.57200000
H        1.65960000      -0.54810000      -3.07910000
H        0.71230000       0.89690000      -2.76350000
H        3.50220000       0.52250000      -2.06310000
H        2.51120000       1.82360000      -1.43880000
H        1.35090000      -1.52240000       0.75430000
