17
Properties=species:S:1:pos:R:3 gdb_32232=T pbc="F F F"
C       -0.15760000       1.43620000       0.00570000
N        0.17080000       0.02780000       0.07160000
C        0.68320000      -0.64220000      -1.02450000
C        1.23490000      -0.01500000      -2.14730000
N        1.77300000      -0.65880000      -3.19020000
C        1.77320000      -1.98790000      -3.16130000
C        1.23910000      -2.72810000      -2.10500000
C        0.69030000      -2.05230000      -1.02940000
O        0.13150000      -2.66280000       0.05630000
H        0.74840000       2.04140000      -0.11140000
H       -0.83920000       1.68720000      -0.82230000
H       -0.63060000       1.73050000       0.94500000
H       -0.43370000      -0.53810000       0.64540000
H        1.24410000       1.06950000      -2.20260000
H        2.21260000      -2.49760000      -4.01470000
H        1.25280000      -3.81460000      -2.12490000
H        0.16640000      -3.61760000      -0.06200000
