19
Properties=species:S:1:pos:R:3 gdb_122058=T pbc="F F F"
O       -0.11100000       1.42170000      -0.08090000
C       -0.02280000       0.00840000      -0.04610000
C       -1.44400000      -0.54030000      -0.00630000
C       -1.47900000      -2.07140000       0.02010000
N       -2.83750000      -2.61980000       0.05140000
C       -3.51930000      -2.70620000      -1.16930000
N       -4.72910000      -3.05790000      -1.30000000
C       -3.37000000      -2.98760000       1.28670000
O       -4.46740000      -3.42200000       1.50390000
H        0.78070000       1.78160000      -0.09390000
H        0.50370000      -0.38300000      -0.93290000
H        0.53560000      -0.33810000       0.83960000
H       -1.95660000      -0.14450000       0.87750000
H       -1.99120000      -0.16840000      -0.88020000
H       -0.95900000      -2.48170000      -0.85300000
H       -0.94640000      -2.44580000       0.89980000
H       -2.85330000      -2.43200000      -1.99750000
H       -4.97610000      -3.05530000      -2.28900000
H       -2.61560000      -2.83130000       2.08540000
