23
Properties=species:S:1:pos:R:3 gdb_106547=T pbc="F F F"
C       -0.11770000       1.64100000       0.17320000
C        0.01330000       0.12350000       0.13330000
C        1.14790000      -0.58740000      -0.67630000
C        2.14300000      -0.16440000       0.44310000
C        0.86720000      -0.66930000       1.18330000
C        0.64410000      -0.74150000       2.66720000
O        1.65670000      -1.56930000       3.22510000
C        0.88500000      -1.87290000       0.17580000
C       -0.31810000      -2.77970000      -0.04160000
H        0.82690000       2.16480000       0.33760000
H       -0.53510000       2.00690000      -0.77180000
H       -0.80710000       1.94780000       0.96840000
H       -0.98010000      -0.30180000      -0.03300000
H        1.31390000      -0.53710000      -1.75440000
H        3.03660000      -0.78200000       0.55870000
H        2.38980000       0.89410000       0.52850000
H        0.67500000       0.27360000       3.09720000
H       -0.36110000      -1.14950000       2.86820000
H        1.51680000      -1.61490000       4.17540000
H        1.78190000      -2.49020000       0.29140000
H       -1.26210000      -2.24680000      -0.17910000
H       -0.16410000      -3.40520000      -0.92810000
H       -0.44090000      -3.45470000       0.81290000
