19
Properties=species:S:1:pos:R:3 gdb_30013=T pbc="F F F"
C       -0.14310000       1.44000000       0.03910000
N       -0.01840000       0.00060000       0.03080000
C       -0.06700000      -0.80360000      -1.08670000
C       -0.00770000      -2.13550000      -0.70790000
C        0.05890000      -2.12260000       0.70760000
C        0.02610000      -0.82150000       1.13210000
C        0.27800000      -0.71740000       2.60330000
C        0.01910000      -2.20790000       2.99900000
N        0.29960000      -3.01730000       1.77870000
H        0.60110000       1.88610000       0.70640000
H        0.02970000       1.82110000      -0.96950000
H       -1.13880000       1.76270000       0.36780000
H       -0.17180000      -0.36210000      -2.06580000
H       -0.00670000      -2.98150000      -1.37740000
H        1.31310000      -0.42280000       2.83350000
H       -0.38080000      -0.04200000       3.15990000
H        0.64870000      -2.53500000       3.83090000
H       -1.03260000      -2.31050000       3.30410000
H       -0.26320000      -3.85950000       1.75080000
