12
Properties=species:S:1:pos:R:3 gdb_125729=T pbc="F F F"
C       -0.16000000       1.53490000       0.08890000
C       -0.03860000       0.05780000      -0.07540000
N        0.16730000      -0.44260000      -1.22910000
O        0.27250000      -1.84850000      -1.31680000
C        0.16390000      -2.66260000      -0.23310000
O        0.25950000      -3.84430000      -0.35060000
C       -0.08280000      -1.99590000       1.11940000
O       -0.19660000      -2.58880000       2.14040000
O       -0.17030000      -0.62270000       1.09940000
H        0.60900000       1.89710000       0.77800000
H       -0.04810000       2.02240000      -0.87850000
H       -1.13530000       1.78260000       0.51860000
