16
Properties=species:S:1:pos:R:3 gdb_13673=T pbc="F F F"
O       -0.19850000       1.43460000       0.22720000
C       -0.01450000       0.05470000       0.08720000
C       -0.67680000      -0.87630000       1.07530000
C       -1.22700000      -0.71250000      -0.34350000
N       -2.42660000       0.02370000      -0.61390000
C       -3.63160000      -0.59530000      -0.07970000
C       -4.81530000       0.22080000      -0.36450000
N       -5.74900000       0.87030000      -0.56480000
H        0.26020000       1.72270000       1.02290000
H        0.94680000      -0.23530000      -0.33410000
H       -0.17540000      -1.79840000       1.34940000
H       -1.23830000      -0.40180000       1.87420000
H       -1.06130000      -1.54540000      -1.02300000
H       -2.32360000       0.97880000      -0.28770000
H       -3.76950000      -1.57550000      -0.55360000
H       -3.59970000      -0.78120000       1.00910000
