18
Properties=species:S:1:pos:R:3 gdb_116696=T pbc="F F F"
C       -0.07030000       1.45490000       0.06910000
O        0.09270000       0.05190000      -0.11270000
C        0.63860000      -0.61020000       0.92090000
N        0.82560000      -1.85510000       0.86040000
C        1.41070000      -2.48340000       2.00130000
C        0.86420000      -3.86450000       2.47810000
C        1.42770000      -4.53680000       1.20510000
C        2.49460000      -3.58630000       1.79520000
O        2.16480000      -4.08570000       3.14880000
H        0.89340000       1.95270000       0.22940000
H       -0.51890000       1.83220000      -0.85020000
H       -0.73720000       1.67490000       0.91120000
H        0.89430000       0.01960000       1.78760000
H        1.64870000      -1.81590000       2.84150000
H       -0.04070000      -4.08450000       3.04570000
H        1.65360000      -5.59810000       1.31200000
H        0.98120000      -4.26820000       0.24840000
H        3.54920000      -3.47180000       1.54220000
