22
Properties=species:S:1:pos:R:3 gdb_59462=T pbc="F F F"
C        0.01500000       1.43050000      -0.35550000
C        0.07840000       0.01750000       0.22130000
O        0.58730000       0.01060000       1.55460000
C       -1.28050000      -0.66210000       0.19090000
N       -1.76070000      -1.21580000      -1.08910000
C       -1.48310000      -2.12460000       0.04120000
C       -0.35970000      -3.13520000      -0.20760000
C       -0.93250000      -4.53280000      -0.46610000
O        0.46040000      -2.72390000      -1.28880000
H        0.99940000       1.90400000      -0.30980000
H       -0.31740000       1.40810000      -1.39780000
H       -0.69140000       2.05380000       0.20930000
H        0.78260000      -0.58680000      -0.35430000
H        0.05460000       0.62110000       2.07660000
H       -2.02770000      -0.14770000       0.79990000
H       -2.75490000      -1.06170000      -1.22080000
H       -2.34220000      -2.53990000       0.56520000
H        0.28240000      -3.16890000       0.68210000
H       -1.61260000      -4.51730000      -1.32520000
H       -0.12050000      -5.23020000      -0.68670000
H       -1.48370000      -4.90540000       0.40480000
H       -0.12290000      -2.20380000      -1.86430000
