17
Properties=species:S:1:pos:R:3 gdb_56239=T pbc="F F F"
N        0.12140000       1.02760000      -0.09290000
C       -0.13960000      -0.31230000      -0.18200000
N        0.59090000      -1.19680000      -0.74670000
H        0.07200000      -2.83420000      -1.00480000
H        1.45650000      -0.82290000      -1.13270000
C       -1.47280000      -0.72650000       0.43890000
O       -1.74150000      -2.08840000       0.33180000
C       -2.31420000      -2.53910000      -0.89060000
C       -1.56110000      -3.75440000      -1.45670000
O       -0.24060000      -3.71710000      -1.35480000
O       -2.16150000      -4.65890000      -1.98100000
H        1.04920000       1.36100000      -0.30050000
H       -0.40480000       1.59050000       0.55590000
H       -1.43640000      -0.49080000       1.51090000
H       -2.27010000      -0.10490000       0.00020000
H       -3.35140000      -2.84450000      -0.72410000
H       -2.30180000      -1.74660000      -1.65140000
