19
Properties=species:S:1:pos:R:3 gdb_89616=T pbc="F F F"
C       -0.04960000       1.57150000       0.12290000
C        0.06930000       0.06180000       0.27220000
C        0.58000000      -0.77930000      -0.95710000
C        1.74290000      -1.27510000      -0.09420000
O        2.46440000      -0.12220000       0.37670000
C        1.27460000      -0.46990000       1.07020000
C        2.41100000      -2.60300000      -0.11840000
C        3.67060000      -2.75620000       0.70730000
O        1.93920000      -3.50040000      -0.78350000
H        0.89930000       1.99650000      -0.21630000
H       -0.82150000       1.83070000      -0.60890000
H       -0.31730000       2.04560000       1.07350000
H       -0.85780000      -0.36950000       0.66210000
H       -0.09760000      -1.58410000      -1.24280000
H        0.88080000      -0.21390000      -1.84210000
H        1.36240000      -0.66880000       2.13360000
H        3.51970000      -2.40210000       1.73180000
H        3.97480000      -3.80340000       0.70990000
H        4.46710000      -2.13800000       0.28000000
