18
Properties=species:S:1:pos:R:3 gdb_76090=T pbc="F F F"
C        0.12380000       1.63200000       0.04090000
C        0.05220000       0.12100000       0.04210000
C        1.31280000      -0.72920000      -0.12030000
C        2.60570000      -0.12370000      -0.28520000
N        3.65830000       0.31470000      -0.48200000
C        0.54260000      -0.71750000       1.19500000
C        1.05780000      -0.13780000       2.47700000
C        2.42500000      -0.35020000       2.97670000
O        2.02040000       0.90850000       2.43000000
H        1.02300000       1.99530000       0.53960000
H        0.12220000       2.01100000      -0.98590000
H       -0.74620000       2.05410000       0.55480000
H       -0.80610000      -0.28590000      -0.48620000
H        1.21030000      -1.63630000      -0.70800000
H       -0.01480000      -1.63490000       1.37160000
H        0.27260000       0.01960000       3.22000000
H        2.61040000      -0.35000000       4.04930000
H        3.13920000      -0.90470000       2.37230000
