17
Properties=species:S:1:pos:R:3 gdb_64692=T pbc="F F F"
O       -0.10390000       1.47790000      -0.14620000
C        0.00180000       0.09440000      -0.04800000
C        1.09930000      -0.50520000      -0.92500000
C        2.40850000       0.03490000      -0.56820000
C        3.45470000       0.53050000      -0.24300000
C       -0.34890000      -0.55580000       1.25940000
C       -1.31120000      -0.65040000       0.06840000
C       -2.56160000       0.04780000       0.08200000
C       -3.62710000       0.60490000       0.08340000
H        0.73660000       1.84830000       0.15210000
H        1.10290000      -1.59710000      -0.82910000
H        0.87910000      -0.27360000      -1.97450000
H        4.39490000       0.94270000       0.02940000
H        0.16400000      -1.46090000       1.56610000
H       -0.65060000       0.10740000       2.06100000
H       -1.33860000      -1.61460000      -0.43310000
H       -4.55950000       1.11200000       0.08210000
