18
Properties=species:S:1:pos:R:3 gdb_63222=T pbc="F F F"
C        0.15300000       1.45310000      -0.31080000
C        0.00530000      -0.04790000      -0.04010000
C       -1.45770000      -0.41310000       0.22450000
N        0.50260000      -0.78800000      -1.22240000
C        1.52960000      -1.42660000      -0.85510000
O        1.94670000      -1.37030000       0.43290000
C        0.93650000      -0.58180000       1.12620000
C        1.57290000       0.40960000       1.97480000
C        2.07250000       1.22640000       2.70060000
H        1.19930000       1.72240000      -0.47510000
H       -0.41360000       1.71310000      -1.20870000
H       -0.22410000       2.04300000       0.52910000
H       -2.08060000      -0.10740000      -0.62020000
H       -1.57280000      -1.49300000       0.35690000
H       -1.82530000       0.08950000       1.12570000
H        2.15090000      -2.04630000      -1.49290000
H        0.37300000      -1.28280000       1.75380000
H        2.52080000       1.94880000       3.33740000
