17
Properties=species:S:1:pos:R:3 gdb_41032=T pbc="F F F"
C        0.09980000       1.54090000       0.23070000
O        1.46600000       1.55390000      -0.27120000
C        1.37890000       0.18500000      -0.62170000
C       -0.08610000       0.03650000      -0.05830000
C        0.46120000      -0.89620000       1.10030000
C        1.79020000      -0.94310000       0.32550000
C        3.28320000      -0.72560000      -0.01500000
C        2.42300000      -0.67940000      -1.35010000
O        1.66780000      -1.84080000      -0.85900000
H        0.04990000       1.83890000       1.28360000
H       -0.53290000       2.20400000      -0.36960000
H       -0.97440000      -0.27720000      -0.60180000
H        0.50720000      -0.38990000       2.06770000
H       -0.02070000      -1.86850000       1.21990000
H        3.72670000       0.21160000       0.32830000
H        3.95700000      -1.58110000       0.06500000
H        2.78190000      -0.71080000      -2.38250000
