20
Properties=species:S:1:pos:R:3 gdb_36487=T pbc="F F F"
N       -0.01930000      -1.17680000      -0.07040000
C       -0.02730000      -0.02280000      -0.00410000
C       -0.00960000       1.43670000       0.07970000
C        1.41520000       2.02500000       0.00900000
C        2.16630000       1.70280000      -1.30620000
C        3.18950000       2.84790000      -1.47740000
C        2.54350000       4.05210000      -0.80350000
C        1.09960000       4.34230000      -1.12980000
C        1.44790000       3.54530000       0.10740000
H       -0.62060000       1.84190000      -0.73520000
H       -0.49640000       1.73370000       1.01570000
H        1.98590000       1.61960000       0.85400000
H        2.63280000       0.71570000      -1.28370000
H        1.46050000       1.69270000      -2.14410000
H        4.12370000       2.60480000      -0.95740000
H        3.44290000       3.02210000      -2.52850000
H        3.17620000       4.87980000      -0.50320000
H        0.75090000       5.35710000      -0.97390000
H        0.63580000       3.84860000      -1.97840000
H        1.26610000       3.99850000       1.07630000
