16
Properties=species:S:1:pos:R:3 gdb_102239=T pbc="F F F"
C       -0.25370000       1.41420000      -0.00540000
C       -0.00640000      -0.06020000       0.17030000
O        1.00100000      -0.57130000       0.57540000
O       -1.11530000      -0.76970000      -0.20650000
C       -1.02600000      -2.20650000      -0.13030000
C       -2.20090000      -2.69310000       0.72760000
O       -3.44620000      -2.32240000       0.19440000
C       -1.06850000      -2.74400000      -1.49630000
N       -1.08660000      -3.18990000      -2.56120000
H        0.60920000       1.97100000       0.35680000
H       -0.42240000       1.63410000      -1.06360000
H       -1.15330000       1.71510000       0.53800000
H       -0.07160000      -2.47460000       0.33330000
H       -2.18210000      -3.78580000       0.77560000
H       -2.04480000      -2.30190000       1.74460000
H       -3.44620000      -1.36340000       0.09780000
