19
Properties=species:S:1:pos:R:3 gdb_60656=T pbc="F F F"
N       -0.06300000       1.50970000      -0.13270000
C        0.03140000       0.05890000      -0.02630000
C        0.72350000      -0.49760000      -1.27450000
C        2.26320000      -0.36380000      -1.44500000
C        2.24680000      -1.84840000      -1.88170000
N        0.88310000      -1.98410000      -1.29300000
H        0.89590000      -2.10300000       0.45240000
H        0.20630000      -2.49410000      -1.85100000
C        0.65050000      -0.42390000       1.31060000
O        0.97500000      -1.71870000       1.36940000
O        0.78210000       0.31870000       2.25060000
H       -0.42290000       1.85700000       0.75350000
H        0.88070000       1.89080000      -0.17660000
H       -0.99330000      -0.34560000      -0.03100000
H        0.19450000      -0.11300000      -2.15380000
H        2.61650000       0.36400000      -2.17470000
H        2.78460000      -0.21030000      -0.49740000
H        2.25790000      -1.96640000      -2.97120000
H        2.98890000      -2.51940000      -1.44190000
