17
Properties=species:S:1:pos:R:3 gdb_72836=T pbc="F F F"
O        0.03020000       1.33810000      -0.38370000
C        0.03170000      -0.01290000       0.00660000
C        0.36910000      -1.03800000      -1.12290000
C       -1.12940000      -1.45500000      -1.17550000
C       -1.37760000      -0.63260000       0.12100000
C       -1.31160000      -1.47440000       1.38590000
O       -2.12830000      -2.23920000       1.80760000
O       -0.11600000      -1.27600000       2.01940000
C        0.66780000      -0.25510000       1.38500000
H        0.91690000       1.57040000      -0.68090000
H        0.77130000      -0.58730000      -2.03290000
H        1.03900000      -1.83830000      -0.79710000
H       -1.65680000      -1.03140000      -2.03150000
H       -1.35340000      -2.52110000      -1.11390000
H       -2.23840000       0.03640000       0.14270000
H        1.70410000      -0.60450000       1.34170000
H        0.61760000       0.66150000       1.98320000
