19
Properties=species:S:1:pos:R:3 gdb_73376=T pbc="F F F"
O       -0.08850000       1.33370000       0.00710000
C        0.02310000      -0.06530000       0.00980000
C        0.67070000      -0.69290000      -1.23720000
C        0.35040000      -2.20780000      -1.06990000
C       -0.77490000      -2.20870000      -0.02700000
C       -0.42490000      -1.81620000       1.44750000
C        0.64880000      -0.72310000       1.28390000
O       -1.63550000      -1.00340000       1.49910000
C       -1.36250000      -0.78540000       0.09590000
H        0.79780000       1.70960000       0.00400000
H        0.19860000      -0.28570000      -2.13840000
H        1.74330000      -0.48100000      -1.30200000
H        0.02130000      -2.65630000      -2.01110000
H        1.21950000      -2.78220000      -0.73280000
H       -1.50860000      -3.01150000      -0.08260000
H       -0.33790000      -2.53810000       2.26040000
H        1.66570000      -1.09660000       1.13050000
H        0.62750000      -0.04270000       2.13760000
H       -2.19080000      -0.37530000      -0.48100000
