19
Properties=species:S:1:pos:R:3 gdb_56322=T pbc="F F F"
C       -0.11450000       1.34870000       0.11000000
C       -0.25210000      -0.16480000       0.15300000
O        0.50790000      -0.87140000       0.79420000
N       -1.27470000      -0.68670000      -0.58510000
C       -1.50920000      -2.11820000      -0.64800000
C       -2.20920000      -2.64920000       0.61680000
N       -2.43640000      -4.08410000       0.55800000
C       -3.44730000      -4.62340000      -0.16970000
O       -4.24770000      -3.98090000      -0.81930000
H       -0.10740000       1.73090000       1.13370000
H        0.85080000       1.60010000      -0.33830000
H       -0.90660000       1.84830000      -0.45370000
H       -1.90380000      -0.06930000      -1.06910000
H       -2.12960000      -2.33590000      -1.51970000
H       -0.54540000      -2.62240000      -0.76430000
H       -1.59020000      -2.42660000       1.48760000
H       -3.17650000      -2.15190000       0.73340000
H       -1.79650000      -4.70320000       1.02820000
H       -3.47000000      -5.72920000      -0.10040000
