19
Properties=species:S:1:pos:R:3 gdb_84731=T pbc="F F F"
C       -0.26590000       1.41800000      -0.12850000
C        0.21770000      -0.02870000      -0.01810000
C        1.17210000      -0.41890000      -1.11710000
C        1.50270000      -1.68280000      -1.43190000
C        1.07150000      -2.84020000      -0.66370000
C        0.96400000      -2.84350000       0.67620000
C        1.41130000      -1.71980000       1.56660000
C        0.75090000      -0.34160000       1.39220000
O        0.67140000       0.43670000       2.30640000
H        0.57300000       2.11510000      -0.03940000
H       -0.75270000       1.58660000      -1.09320000
H       -0.97180000       1.65410000       0.66970000
H       -0.64330000      -0.71680000      -0.08910000
H        1.56100000       0.39900000      -1.71890000
H        2.10070000      -1.86380000      -2.32250000
H        0.84780000      -3.75270000      -1.21220000
H        0.60150000      -3.73860000       1.17390000
H        1.34480000      -1.98150000       2.62440000
H        2.47300000      -1.50990000       1.35810000
