19
Properties=species:S:1:pos:R:3 gdb_36195=T pbc="F F F"
C       -0.04360000      -1.20530000       0.04200000
C       -0.05230000      -0.00410000       0.08640000
C       -0.01530000       1.45510000       0.13040000
C        1.39730000       1.99770000      -0.03670000
C        2.40840000       1.82780000       1.13490000
C        2.73830000       3.35330000       1.07730000
C        1.77640000       3.50870000      -0.12120000
O        2.42610000       3.31240000      -1.39220000
C        2.05340000       1.91430000      -1.42810000
H       -0.05080000      -2.26640000       0.00490000
H       -0.66210000       1.86290000      -0.65790000
H       -0.43490000       1.80380000       1.08350000
H        1.93420000       1.51760000       2.06930000
H        3.23810000       1.14600000       0.93320000
H        2.41730000       3.89980000       1.96840000
H        3.77070000       3.62410000       0.84750000
H        1.07170000       4.34590000      -0.13800000
H        2.92120000       1.25060000      -1.52460000
H        1.35370000       1.70860000      -2.24930000
