11
Properties=species:S:1:pos:R:3 gdb_21518=T pbc="F F F"
N        0.02160000       1.34760000       0.13770000
C       -0.05150000       0.00300000       0.04760000
C       -1.13070000      -0.86520000       0.01840000
C       -0.50280000      -2.14440000      -0.02260000
N        0.79780000      -2.07690000      -0.02270000
O        1.08750000      -0.68130000       0.02240000
C       -2.49290000      -0.51280000       0.02140000
N       -3.60560000      -0.18550000       0.02060000
H        0.89830000       1.78670000      -0.09290000
H       -0.81450000       1.87440000      -0.05700000
H       -0.98170000      -3.11290000      -0.05400000
