20
Properties=species:S:1:pos:R:3 gdb_60187=T pbc="F F F"
C        0.09870000       1.50990000      -0.00840000
C        0.02230000      -0.01110000      -0.00270000
C        0.26770000      -0.60580000       1.38460000
O       -1.28040000      -0.33920000      -0.50860000
C       -1.45240000      -1.65010000      -0.90230000
C       -2.13150000      -2.63660000       0.00400000
C       -2.87480000      -2.07230000      -1.20780000
C       -3.95210000      -1.14570000      -1.00440000
N       -4.83700000      -0.41610000      -0.85490000
H        1.08620000       1.84480000       0.32180000
H       -0.08680000       1.89850000      -1.01270000
H       -0.65420000       1.92970000       0.66570000
H        0.77200000      -0.41470000      -0.70330000
H       -0.48120000      -0.23810000       2.09340000
H        0.22460000      -1.69800000       1.36960000
H        1.25830000      -0.31440000       1.74770000
H       -0.68920000      -2.02990000      -1.58370000
H       -1.84860000      -3.68270000      -0.03050000
H       -2.45280000      -2.26840000       0.97040000
H       -3.01550000      -2.73320000      -2.05620000
