12
Properties=species:S:1:pos:R:3 gdb_5352=T pbc="F F F"
N        0.03590000      -1.14720000      -0.00400000
C       -0.00900000       0.00840000       0.00330000
C       -0.01680000       1.44940000       0.01070000
N       -1.21690000       2.04630000       0.02990000
C       -1.23080000       3.37750000       0.03700000
C       -0.07880000       4.16460000       0.02560000
C        1.15850000       3.53140000       0.00580000
C        1.19730000       2.14210000      -0.00190000
H       -2.21360000       3.84150000       0.05260000
H       -0.15760000       5.24570000       0.03230000
H        2.07840000       4.10560000      -0.00350000
H        2.13340000       1.59740000      -0.01720000
