16
Properties=species:S:1:pos:R:3 gdb_31111=T pbc="F F F"
N        0.68080000       1.61020000      -0.97480000
H        1.24760000       0.96570000      -1.51910000
H        0.81410000       2.52540000      -1.39640000
H       -0.29020000       1.35370000      -1.14500000
C       -0.87470000       0.94290000       2.03010000
C       -2.15870000       0.60270000       1.84370000
C       -2.77910000       0.53790000       0.48480000
O       -2.35870000       0.74020000      -0.61580000
O       -4.11740000       0.15370000       0.67080000
C       -4.30630000      -0.00470000       2.02320000
O       -5.53470000      -0.37170000       2.37650000
C       -3.21690000       0.23760000       2.76940000
H       -0.45340000       0.98080000       3.02910000
H       -0.22510000       1.18840000       1.19380000
H       -6.06980000      -0.45630000       1.57710000
H       -3.15380000       0.17080000       3.84230000
