19
Properties=species:S:1:pos:R:3 gdb_99310=T pbc="F F F"
C       -0.18060000       1.15020000      -0.69970000
O       -0.01970000      -0.23240000      -0.35480000
C        0.90120000      -0.90530000      -1.07330000
O        1.55710000      -0.41890000      -1.95570000
C        0.98310000      -2.34230000      -0.55840000
O        1.89930000      -3.14000000      -1.25340000
C        1.37100000      -3.80370000      -2.36800000
C        1.31480000      -3.11960000      -3.70970000
C        2.34940000      -4.19110000      -3.42630000
H        0.75610000       1.69440000      -0.55520000
H       -0.48890000       1.25300000      -1.74310000
H       -0.95260000       1.53500000      -0.03340000
H        1.31000000      -2.29340000       0.48700000
H       -0.03050000      -2.76840000      -0.55590000
H        0.57550000      -4.50610000      -2.11500000
H        0.48770000      -3.35650000      -4.37070000
H        1.66180000      -2.09530000      -3.74300000
H        3.37020000      -3.85880000      -3.27680000
H        2.24890000      -5.16450000      -3.89250000
