21
Properties=species:S:1:pos:R:3 gdb_122252=T pbc="F F F"
C        0.12490000       1.32670000      -0.21360000
O        0.03630000      -0.04150000       0.09890000
C       -1.25860000      -0.56670000      -0.09990000
C       -1.23810000      -2.03960000       0.29390000
C       -2.58540000      -2.72730000       0.10310000
C       -2.93480000      -3.25330000      -1.28480000
C       -2.59140000      -4.22100000      -0.19100000
C       -3.66570000      -2.21490000       0.90610000
C       -4.55680000      -1.77910000       1.58770000
H        1.15450000       1.64110000      -0.02480000
H       -0.11760000       1.52270000      -1.27070000
H       -0.55190000       1.93390000       0.40860000
H       -1.99790000      -0.02030000       0.50780000
H       -1.56270000      -0.45660000      -1.15540000
H       -0.48260000      -2.55410000      -0.31010000
H       -0.92260000      -2.12090000       1.33980000
H       -3.96790000      -3.18320000      -1.60280000
H       -2.20570000      -3.08260000      -2.06970000
H       -1.62760000      -4.71760000      -0.22200000
H       -3.39150000      -4.80920000       0.24200000
H       -5.34590000      -1.39710000       2.18650000
