21
Properties=species:S:1:pos:R:3 gdb_85978=T pbc="F F F"
C       -0.33860000       0.99100000       1.14560000
C        0.52110000      -0.12120000       0.58290000
C        0.64650000      -0.26230000      -0.94790000
C        2.17270000      -0.13240000      -0.69810000
C        2.90670000       0.99990000      -1.40030000
O        1.94210000       0.16360000       0.70200000
C        2.92050000      -1.44340000      -0.85720000
C        3.69680000      -2.02370000       0.24390000
O        2.41550000      -2.55400000      -0.11910000
H       -0.12910000       1.94120000       0.64410000
H       -1.40040000       0.75400000       1.01520000
H       -0.14770000       1.11890000       2.21590000
H        0.29360000      -1.07450000       1.07410000
H        0.30950000      -1.20650000      -1.37660000
H        0.22000000       0.57370000      -1.50760000
H        2.36620000       1.94060000      -1.26850000
H        3.91310000       1.12100000      -0.98630000
H        2.99860000       0.79880000      -2.47340000
H        3.20930000      -1.68210000      -1.88320000
H        4.54610000      -2.66900000       0.02500000
H        3.71730000      -1.49830000       1.19460000
