18
Properties=species:S:1:pos:R:3 gdb_26688=T pbc="F F F"
C       -0.05570000       1.52640000       0.09540000
C        0.01170000       0.04340000      -0.01130000
C        0.01570000      -0.78190000      -1.10480000
O       -0.08820000      -0.33640000      -2.39920000
C        0.07940000      -2.15410000      -0.68330000
C        0.08170000      -3.36630000      -1.56210000
C        0.11660000      -2.09830000       0.69190000
O        0.17940000      -3.06040000       1.65170000
N        0.06490000      -0.80150000       1.09960000
H        0.77890000       1.94420000       0.67450000
H       -0.00910000       1.95460000      -0.90860000
H       -0.98500000       1.88060000       0.56250000
H        0.32210000      -0.98530000      -2.97820000
H        1.04910000      -3.55020000      -2.05080000
H       -0.16260000      -4.27570000      -1.00000000
H       -0.67150000      -3.28650000      -2.35590000
H        0.28050000      -3.91280000       1.21770000
H        0.10520000      -0.51080000       2.06030000
