17
Properties=species:S:1:pos:R:3 gdb_13387=T pbc="F F F"
C       -0.09540000       1.52500000      -0.06890000
C        0.01220000       0.01370000       0.02170000
O        0.72050000      -0.45200000      -1.12650000
C        0.82790000      -1.82680000      -1.22150000
C        1.56170000      -2.20430000      -2.52400000
N        2.88670000      -2.68440000      -2.10210000
C        2.84350000      -2.72020000      -0.83770000
O        1.70760000      -2.35260000      -0.18790000
H        0.89890000       1.97940000      -0.09330000
H       -0.63040000       1.82110000      -0.97550000
H       -0.63500000       1.91770000       0.79800000
H        0.54340000      -0.29020000       0.93230000
H       -0.98650000      -0.45090000       0.04830000
H       -0.14450000      -2.31190000      -1.06590000
H        1.04230000      -2.99110000      -3.08010000
H        1.65040000      -1.32690000      -3.16980000
H        3.65100000      -3.03830000      -0.18750000
