20
Properties=species:S:1:pos:R:3 gdb_126679=T pbc="F F F"
C       -0.31980000       1.61260000       0.04150000
C       -0.05790000       0.10060000      -0.00620000
N       -1.25150000      -0.74040000       0.00730000
C       -1.99490000      -0.83750000      -1.23640000
C       -2.00710000      -0.80600000       1.16570000
C       -3.35150000      -1.09270000       1.36500000
C       -3.51210000      -1.07910000       2.76820000
N       -2.38840000      -0.80010000       3.41040000
N       -1.47870000      -0.63210000       2.40950000
H        0.62610000       2.16350000       0.03120000
H       -0.90800000       1.93800000      -0.82190000
H       -0.86680000       1.88810000       0.94760000
H        0.50140000      -0.15370000      -0.91260000
H        0.59030000      -0.19450000       0.82790000
H       -2.60930000      -1.74230000      -1.22660000
H       -2.65810000       0.02220000      -1.42180000
H       -1.28920000      -0.91690000      -2.06750000
H       -4.09980000      -1.27150000       0.61240000
H       -4.41680000      -1.25810000       3.33180000
H       -0.52400000      -0.44290000       2.65490000
