19
Properties=species:S:1:pos:R:3 gdb_95053=T pbc="F F F"
C       -0.21220000       1.45250000      -0.04780000
N        0.07050000       0.02720000      -0.02460000
C        0.78210000      -0.49650000      -1.19010000
C        1.12220000      -1.93610000      -0.77240000
C        1.43360000      -1.80600000       0.72430000
N        2.72320000      -1.18740000       1.06060000
C        2.22050000       0.04650000       1.40380000
O        2.74380000       1.08340000       1.71700000
C        0.75670000      -0.46520000       1.15420000
H        0.69490000       2.07770000      -0.07290000
H       -0.82040000       1.68580000      -0.92800000
H       -0.78670000       1.72740000       0.84260000
H        0.14520000      -0.44340000      -2.07880000
H        1.70550000       0.06930000      -1.41320000
H        0.24730000      -2.58130000      -0.89940000
H        1.94930000      -2.36580000      -1.34390000
H        1.21160000      -2.70080000       1.30980000
H        3.67130000      -1.49140000       0.88840000
H        0.11570000      -0.45550000       2.03920000
