19
Properties=species:S:1:pos:R:3 gdb_62260=T pbc="F F F"
C        0.48160000       1.21000000       0.05770000
N       -0.09750000      -0.12200000       0.01440000
C       -0.33090000      -0.83370000       1.25390000
C       -1.55880000      -0.31210000       2.02880000
N       -1.75440000      -1.01630000       3.28600000
C       -2.25940000      -2.27760000       3.33120000
O       -2.57030000      -2.92690000       2.35440000
C       -0.37900000      -0.69610000      -1.19450000
O       -0.21470000      -0.17360000      -2.27630000
H        1.43000000       1.19910000       0.60840000
H        0.65950000       1.52530000      -0.97060000
H       -0.18930000       1.93190000       0.53770000
H       -0.50060000      -1.88980000       1.02940000
H        0.56050000      -0.76760000       1.89180000
H       -1.45570000       0.75340000       2.24900000
H       -2.44910000      -0.44620000       1.40660000
H       -1.51140000      -0.56400000       4.15190000
H       -2.36150000      -2.65130000       4.36900000
H       -0.78280000      -1.71970000      -1.07410000
