21
Properties=species:S:1:pos:R:3 gdb_92714=T pbc="F F F"
C       -0.90980000       1.06460000      -0.01010000
C        0.11930000      -0.06110000      -0.02820000
C        1.26140000       0.10730000      -1.06050000
C        2.40050000      -0.65640000      -0.43560000
C        2.20360000      -0.91750000       0.85700000
C        3.12260000      -1.60460000       1.81410000
C        0.86270000      -0.34180000       1.32410000
C        1.07260000       0.83530000       2.16770000
C        1.26690000       1.79610000       2.86560000
H       -0.44540000       2.02100000       0.24720000
H       -1.38170000       1.16750000      -0.99300000
H       -1.70160000       0.87260000       0.72150000
H       -0.39240000      -0.99990000      -0.27190000
H        0.97580000      -0.26890000      -2.04960000
H        1.52620000       1.16650000      -1.19650000
H        3.29710000      -0.92950000      -0.98300000
H        4.05250000      -1.91120000       1.32770000
H        3.37350000      -0.94480000       2.65360000
H        2.65280000      -2.49760000       2.24650000
H        0.29980000      -1.07720000       1.91530000
H        1.43330000       2.64430000       3.48210000
