17
Properties=species:S:1:pos:R:3 gdb_35339=T pbc="F F F"
C       -0.36810000      -1.28680000      -0.35420000
C       -0.17260000      -0.11690000      -0.15650000
C       -0.00140000       1.30430000       0.04200000
C       -0.08000000       1.85830000       1.54800000
C        1.43510000       2.03580000       1.44190000
C        2.85830000       2.64740000       1.46450000
C        2.78390000       1.42490000       0.44930000
O        2.06700000       0.67720000       1.47510000
C        1.43730000       1.97510000      -0.08620000
H       -0.51100000      -2.32660000      -0.51260000
H       -0.69810000       1.84210000      -0.60740000
H       -0.63370000       2.79890000       1.58720000
H       -0.43370000       1.17100000       2.31760000
H        2.97390000       3.65730000       1.06250000
H        3.47340000       2.46020000       2.34610000
H        3.61680000       0.92810000      -0.05510000
H        1.44550000       2.89960000      -0.66530000
