18
Properties=species:S:1:pos:R:3 gdb_60320=T pbc="F F F"
C        0.01110000       1.48490000      -0.01850000
C       -0.13410000      -0.03310000      -0.02360000
O        0.83550000      -0.66520000       0.81670000
C       -1.54490000      -0.48290000       0.37220000
N       -1.61280000      -1.92840000       0.41550000
C       -2.67220000      -2.63450000      -0.06510000
O       -3.67800000      -2.12920000      -0.53300000
C       -2.49600000      -4.07980000       0.03100000
C       -2.38530000      -5.27520000       0.09640000
H        1.03290000       1.76780000      -0.28380000
H       -0.67560000       1.94850000      -0.73340000
H       -0.21390000       1.89610000       0.97370000
H        0.08310000      -0.42250000      -1.02490000
H        0.79890000      -0.23720000       1.68010000
H       -1.80240000      -0.05120000       1.35250000
H       -2.29330000      -0.13360000      -0.34330000
H       -0.79890000      -2.41400000       0.76110000
H       -2.29900000      -6.33310000       0.14780000
