16
Properties=species:S:1:pos:R:3 gdb_2234=T pbc="F F F"
C       -0.04660000       1.55410000       0.03530000
C        0.08950000       0.05470000      -0.00590000
N       -0.77860000      -0.80100000       0.85910000
C        0.68800000      -0.78270000       1.07250000
C        1.41770000      -1.95770000       0.43080000
C        1.13860000      -1.75910000      -1.04690000
C        0.43100000      -0.65330000      -1.28310000
H        0.83260000       2.04180000      -0.39960000
H       -0.92480000       1.88750000      -0.53020000
H       -0.15550000       1.91280000       1.06420000
H       -1.20430000      -0.20720000       1.57090000
H        1.07070000      -0.34140000       1.98730000
H        2.49360000      -1.93400000       0.64950000
H        1.03730000      -2.92020000       0.79370000
H        1.46030000      -2.47060000      -1.79930000
H        0.10400000      -0.30330000      -2.25560000
