16
Properties=species:S:1:pos:R:3 gdb_44457=T pbc="F F F"
N       -0.13180000       1.28710000      -0.09220000
C       -0.01340000       0.04460000       0.00880000
O        1.17930000      -0.67810000      -0.05550000
C        0.78810000      -2.05020000      -0.18790000
C        0.84270000      -3.22270000       0.85170000
C        0.20300000      -2.27630000       1.88990000
C       -0.52240000      -2.01200000       0.53420000
C       -0.63680000      -3.54140000       0.33170000
O       -1.10930000      -0.77510000       0.21920000
H        0.77210000       1.71270000      -0.28510000
H        0.81420000      -2.33810000      -1.24180000
H        1.62740000      -3.95860000       1.00790000
H       -0.39230000      -2.74300000       2.67570000
H        0.83080000      -1.47100000       2.26930000
H       -0.73410000      -3.90300000      -0.69360000
H       -1.26090000      -4.09910000       1.03080000
