18
Properties=species:S:1:pos:R:3 gdb_74645=T pbc="F F F"
C       -0.14900000       1.52120000       0.00320000
C       -0.05050000       0.03610000      -0.04950000
C       -0.00690000      -0.82760000      -1.06900000
C        0.07240000      -2.19670000      -0.41730000
C       -0.83440000      -2.16610000       0.85830000
N        0.13530000      -3.07890000       1.56950000
C        0.99460000      -2.07710000       0.83820000
C        0.00850000      -0.88330000       1.17320000
O       -0.09000000      -0.36570000       2.46220000
H        0.72640000       1.97010000       0.49240000
H       -0.22560000       1.95200000      -0.99880000
H       -1.02290000       1.83910000       0.58460000
H       -0.02950000      -0.62690000      -2.13140000
H        0.11070000      -3.11020000      -1.00560000
H       -1.91920000      -2.28870000       0.92150000
H        0.13040000      -2.83310000       2.56410000
H        2.08840000      -2.09450000       0.87750000
H        0.68280000       0.18180000       2.63670000
