21
Properties=species:S:1:pos:R:3 gdb_122687=T pbc="F F F"
O       -0.13560000       1.48500000       0.09080000
C        0.00710000       0.07790000      -0.03140000
C       -1.38500000      -0.53830000      -0.00750000
C       -1.35110000      -2.06470000      -0.11480000
C       -2.73570000      -2.68120000      -0.08260000
O       -3.49840000      -2.26490000      -1.20450000
C       -4.35170000      -3.34330000      -1.57360000
C       -3.92070000      -4.50010000      -0.64380000
O       -2.65170000      -4.08510000      -0.16720000
H        0.74070000       1.87950000       0.06250000
H        0.51640000      -0.19180000      -0.97140000
H        0.61150000      -0.33450000       0.79390000
H       -1.88140000      -0.23350000       0.92220000
H       -1.97300000      -0.12120000      -0.83110000
H       -0.87170000      -2.38110000      -1.04810000
H       -0.77620000      -2.49740000       0.71270000
H       -3.27320000      -2.39760000       0.84440000
H       -5.40530000      -3.07260000      -1.43180000
H       -4.18930000      -3.57360000      -2.63240000
H       -4.62990000      -4.62450000       0.18830000
H       -3.80510000      -5.45800000      -1.15530000
