17
Properties=species:S:1:pos:R:3 gdb_94503=T pbc="F F F"
C       -0.39830000       1.47290000      -0.03540000
C        0.02200000       0.01420000      -0.08790000
C        1.40090000      -0.31890000      -0.69790000
O        1.85100000      -0.95260000       0.52050000
C        0.61310000      -0.65140000       1.20250000
C        0.78120000       0.18030000       2.38000000
C        0.89610000       0.86850000       3.36750000
C        1.07920000       1.68100000       4.54190000
O        0.18150000       2.21550000       5.15180000
H        0.39310000       2.10190000       0.38310000
H       -0.62600000       1.83780000      -1.04240000
H       -1.29260000       1.60680000       0.58070000
H       -0.78100000      -0.59950000      -0.50240000
H        1.40350000      -1.01570000      -1.54340000
H        2.01510000       0.55500000      -0.94980000
H        0.09470000      -1.57350000       1.49920000
H        2.13750000       1.78460000       4.85630000
