16
Properties=species:S:1:pos:R:3 gdb_128335=T pbc="F F F"
C        0.00060000       1.41360000       0.04220000
N        0.06240000      -0.01960000      -0.10010000
C        0.65430000      -0.65360000      -1.12930000
N        1.22700000       0.03200000      -2.09160000
N        1.79180000      -0.71290000      -3.07720000
C        1.80130000      -2.05360000      -3.12800000
C        1.21500000      -2.80530000      -2.14460000
C        0.58230000      -2.14660000      -1.04500000
O        0.01310000      -2.67030000      -0.08480000
H        1.00410000       1.85430000       0.08860000
H       -0.52290000       1.87710000      -0.80300000
H       -0.53330000       1.65640000       0.96270000
H       -0.34220000      -0.65240000       0.57540000
H        2.22260000      -0.16110000      -3.79980000
H        2.29900000      -2.48270000      -3.99070000
H        1.22510000      -3.88610000      -2.18990000
