19
Properties=species:S:1:pos:R:3 gdb_63112=T pbc="F F F"
C       -0.06310000       1.56400000       0.03180000
C        0.00840000       0.05010000       0.08150000
C       -1.25410000      -0.62390000      -0.42550000
N        1.20720000      -0.71450000      -0.32190000
C        2.43660000       0.05430000       0.09070000
C        2.04440000       0.03540000       1.58680000
C        0.75950000      -0.68070000       1.15190000
C        0.22600000      -1.81520000       1.84570000
N       -0.20190000      -2.70710000       2.44690000
H        0.77470000       2.06820000       0.51430000
H       -0.10670000       1.89880000      -1.01050000
H       -0.97980000       1.90140000       0.52500000
H       -1.46960000      -0.28420000      -1.44350000
H       -1.14020000      -1.70890000      -0.44650000
H       -2.10990000      -0.37310000       0.20900000
H        3.32070000      -0.54370000      -0.13380000
H        2.53540000       1.02740000      -0.39670000
H        2.69080000      -0.60830000       2.18370000
H        1.91390000       0.98610000       2.10930000
