17
Properties=species:S:1:pos:R:3 gdb_10687=T pbc="F F F"
C       -0.17060000       1.60330000       0.33790000
C       -0.03060000       0.11130000       0.02080000
N        0.75180000      -0.54690000       1.07070000
C       -1.42170000      -0.55190000      -0.06180000
C       -1.62260000      -1.97770000       0.33250000
N       -2.12630000      -0.89920000       1.18730000
C       -2.26060000      -0.01570000      -1.11430000
N       -2.88530000       0.41750000      -1.98560000
H        0.80830000       2.09280000       0.31420000
H       -0.81550000       2.09950000      -0.39080000
H       -0.60530000       1.74550000       1.33280000
H        0.43330000       0.01090000      -0.97180000
H        1.29070000      -1.32120000       0.70000000
H        1.41220000       0.10500000       1.47740000
H       -2.38420000      -2.56340000      -0.17210000
H       -0.74720000      -2.52750000       0.66320000
H       -1.44310000      -0.75980000       1.93450000
