14
Properties=species:S:1:pos:R:3 gdb_1222=T pbc="F F F"
C        0.01830000       1.22960000       0.16570000
C       -0.28970000      -0.25060000       0.06420000
O        0.47490000      -1.11300000       0.41910000
C       -1.66890000      -0.59700000      -0.51010000
O       -1.79200000      -1.93830000      -0.91290000
C       -1.84560000      -2.87080000       0.06850000
N       -1.91270000      -4.08990000      -0.24090000
H        0.89760000       1.38320000       0.79180000
H        0.21780000       1.62860000      -0.83610000
H       -0.83380000       1.78770000       0.56860000
H       -2.42560000      -0.32170000       0.24330000
H       -1.86880000       0.01390000      -1.39580000
H       -1.84670000      -2.44600000       1.07950000
H       -1.96540000      -4.65910000       0.60100000
