17
Properties=species:S:1:pos:R:3 gdb_49084=T pbc="F F F"
O       -0.88190000       1.10290000      -0.00550000
C        0.29280000       0.85650000       0.11310000
C        1.39360000       1.87390000       0.05990000
O        2.60660000       1.29810000       0.51200000
C        3.54530000       2.37750000       0.36690000
C        2.64000000       3.46370000      -0.19180000
C        1.66210000       2.77480000      -1.20410000
C        0.53910000       3.73530000      -0.75250000
C        1.26590000       3.35080000       0.55780000
H        0.66100000      -0.18060000       0.26780000
H        3.98050000       2.62880000       1.34170000
H        4.35180000       2.08390000      -0.31590000
H        3.05310000       4.44580000      -0.42300000
H        1.89860000       2.41780000      -2.20730000
H        0.65740000       4.77460000      -1.06890000
H       -0.48700000       3.39010000      -0.86460000
H        1.04670000       3.66500000       1.57870000
