22
Properties=species:S:1:pos:R:3 gdb_9755=T pbc="F F F"
C        0.12400000       1.43670000       0.27080000
C       -0.12920000      -0.06340000       0.08630000
C       -1.60570000      -0.48270000      -0.15470000
C       -2.11540000       0.06870000      -1.49650000
C       -1.73000000      -2.03850000      -0.09210000
C       -2.21160000      -2.38360000       1.33980000
C       -2.80210000      -1.07770000       1.81570000
C       -2.48580000      -0.06430000       1.01290000
H        1.18820000       1.62770000       0.44190000
H       -0.17330000       2.01540000      -0.60940000
H       -0.42250000       1.83340000       1.13240000
H        0.47080000      -0.42960000      -0.75790000
H        0.23520000      -0.59440000       0.97480000
H       -1.50590000      -0.30320000      -2.32840000
H       -3.15090000      -0.23910000      -1.67330000
H       -2.08760000       1.16260000      -1.52780000
H       -2.48390000      -2.36850000      -0.81450000
H       -0.79240000      -2.53620000      -0.35700000
H       -2.93520000      -3.20680000       1.34880000
H       -1.38570000      -2.69990000       1.99240000
H       -3.38830000      -0.99630000       2.72510000
H       -2.78500000       0.96740000       1.16670000
