21
Properties=species:S:1:pos:R:3 gdb_58698=T pbc="F F F"
C        0.18870000       1.56290000      -0.03870000
C        0.05120000       0.03340000       0.02620000
C        0.65450000      -0.60500000      -1.23250000
C        0.69100000      -0.50440000       1.32720000
C        0.90370000      -2.04500000       1.47450000
C        2.40120000      -1.69770000       1.52240000
O        2.13630000      -0.29240000       1.32930000
C        0.06450000       0.08600000       2.51070000
C       -0.46200000       0.53490000       3.49440000
H        1.24570000       1.84720000      -0.04250000
H       -0.27150000       1.94950000      -0.95290000
H       -0.28970000       2.04520000       0.81680000
H       -1.01560000      -0.22330000       0.08060000
H        1.73460000      -0.43460000      -1.26730000
H        0.47230000      -1.68170000      -1.29250000
H        0.21380000      -0.15280000      -2.12600000
H        0.48650000      -2.46970000       2.38650000
H        0.58390000      -2.63670000       0.61780000
H        2.89510000      -1.88880000       2.48230000
H        3.01840000      -2.10730000       0.71470000
H       -0.91930000       0.94210000       4.36230000
