19
Properties=species:S:1:pos:R:3 gdb_108060=T pbc="F F F"
C        0.08090000       1.42250000      -0.02420000
C        0.06410000      -0.06580000       0.04450000
O        0.08900000      -0.81110000      -1.18090000
C       -0.25260000      -1.98000000      -0.38690000
C        1.04380000      -2.26540000       0.40730000
C        0.73670000      -0.94390000       1.12730000
C        1.37680000      -0.39360000       2.36510000
O        2.63810000       0.22090000       2.12260000
C       -0.75650000      -1.06860000       0.78990000
H        1.01300000       1.77350000      -0.47810000
H       -0.75820000       1.79190000      -0.62160000
H        0.01080000       1.85650000       0.97660000
H       -0.80030000      -2.74030000      -0.93940000
H        0.93220000      -3.11760000       1.08440000
H        1.95950000      -2.36040000      -0.18640000
H        0.74760000       0.39160000       2.79880000
H        1.46380000      -1.18610000       3.12640000
H        3.20860000      -0.43630000       1.71130000
H       -1.65230000      -1.01920000       1.39430000
