17
Properties=species:S:1:pos:R:3 gdb_75957=T pbc="F F F"
C       -0.96880000       0.82620000       0.00920000
C        0.21230000      -0.13580000      -0.01370000
C        1.11260000       0.02130000      -1.24560000
O        0.80520000       0.69460000      -2.19560000
C        2.43270000      -0.73710000      -1.15550000
C        2.49380000      -1.59790000       0.10050000
O        2.18210000      -0.82840000       1.27170000
C        1.05230000      -0.07490000       1.26540000
O        0.76810000       0.58500000       2.22390000
H       -0.61990000       1.85820000       0.08760000
H       -1.54620000       0.73140000      -0.91200000
H       -1.61080000       0.62090000       0.86720000
H       -0.15030000      -1.17700000      -0.07210000
H        2.56600000      -1.33940000      -2.05960000
H        3.23890000       0.00600000      -1.14540000
H        1.80970000      -2.45360000       0.03070000
H        3.49810000      -1.98760000       0.27350000
