17
Properties=species:S:1:pos:R:3 gdb_45364=T pbc="F F F"
O       -0.01220000       0.05480000      -0.68710000
C       -0.04390000       1.10480000      -0.10960000
C       -1.34780000       1.84070000       0.20340000
C       -1.16030000       3.10580000       1.04310000
C        0.05280000       3.87140000       0.50910000
C        1.12550000       2.91390000       1.02730000
C        0.63470000       2.65230000       2.45300000
O       -0.79300000       2.75160000       2.38380000
O        1.12960000       1.69310000       0.25830000
H       -1.81340000       2.07410000      -0.76130000
H       -2.01010000       1.13460000       0.71150000
H       -2.08310000       3.68750000       1.09990000
H        0.07170000       3.98440000      -0.57660000
H        0.14900000       4.85320000       0.97990000
H        2.14970000       3.28340000       0.97840000
H        0.93150000       1.65890000       2.80450000
H        1.02470000       3.40570000       3.15010000
