17
Properties=species:S:1:pos:R:3 gdb_1466=T pbc="F F F"
C       -0.10970000       1.55700000       0.00390000
C       -0.01960000       0.03040000       0.00470000
C        0.78340000      -0.51260000       1.20400000
O        0.23060000      -0.08080000       2.44930000
C        0.91070000      -1.97140000       1.14740000
C        0.96450000      -3.17430000       1.10610000
C        1.05280000      -4.62670000       1.06160000
H        0.88270000       2.01080000      -0.09610000
H       -0.72510000       1.91380000      -0.82720000
H       -0.54690000       1.91610000       0.93880000
H       -1.02300000      -0.41370000       0.03510000
H        0.45100000      -0.33160000      -0.91680000
H        1.78420000      -0.06140000       1.18160000
H       -0.55320000      -0.61750000       2.61160000
H        0.95000000      -5.06010000       2.06260000
H        0.26840000      -5.05810000       0.43000000
H        2.01890000      -4.95130000       0.65960000
