19
Properties=species:S:1:pos:R:3 gdb_61462=T pbc="F F F"
C       -0.11830000       1.52980000      -0.08250000
C        0.01800000       0.01340000       0.03110000
O       -1.29270000      -0.59180000       0.09140000
C       -1.87440000      -0.65060000       1.31900000
N       -3.12650000      -1.18280000       1.21040000
O       -1.36770000      -0.26380000       2.34550000
C        0.74130000      -0.59600000      -1.15410000
C        0.53290000      -2.00190000      -1.56530000
N        0.03380000      -0.89400000      -2.40750000
H        0.87240000       1.99030000      -0.14720000
H       -0.68260000       1.80260000      -0.97920000
H       -0.62490000       1.92900000       0.79880000
H        0.54590000      -0.23730000       0.95620000
H       -3.38860000      -1.66070000       0.36560000
H       -3.57520000      -1.44960000       2.06940000
H        1.72580000      -0.15630000      -1.30410000
H        1.35360000      -2.57020000      -1.99330000
H       -0.19170000      -2.58720000      -1.00800000
H       -0.96590000      -0.79400000      -2.24360000
