15
Properties=species:S:1:pos:R:3 gdb_42445=T pbc="F F F"
O        0.10130000       0.38430000       1.19960000
C       -0.01650000       1.01840000       0.16920000
N        1.01690000       1.35500000      -0.65620000
C        2.38130000       1.00720000      -0.33030000
C        3.24480000       2.18900000      -0.20180000
N        3.92080000       3.12230000      -0.12390000
C       -1.35650000       1.52270000      -0.30480000
C       -1.60100000       2.97020000      -0.43140000
O       -1.39860000       2.15430000      -1.58680000
H        0.79240000       1.82670000      -1.52000000
H        2.34690000       0.46830000       0.62220000
H        2.81600000       0.33590000      -1.08050000
H       -2.18680000       0.86260000      -0.06690000
H       -2.61210000       3.34900000      -0.29980000
H       -0.79760000       3.66820000      -0.20510000
