21
Properties=species:S:1:pos:R:3 gdb_126561=T pbc="F F F"
C       -0.00800000       1.56120000       0.06850000
C       -0.05560000       0.03340000      -0.00710000
C        0.75090000      -0.53050000      -1.19260000
C        0.71310000      -2.02660000      -1.28090000
N        1.69280000      -2.75860000      -0.75070000
N        1.32880000      -4.03390000      -0.98240000
C        0.15270000      -4.13460000      -1.64820000
C       -0.29260000      -2.84720000      -1.86540000
C       -1.54540000      -2.41760000      -2.56580000
H        1.02120000       1.91960000       0.18270000
H       -0.41600000       2.01690000      -0.84100000
H       -0.58750000       1.93720000       0.91760000
H        0.33650000      -0.40090000       0.91990000
H       -1.09810000      -0.30060000      -0.08360000
H        0.36770000      -0.09630000      -2.12530000
H        1.79570000      -0.21450000      -1.10070000
H        1.93350000      -4.77720000      -0.67880000
H       -0.26970000      -5.09050000      -1.91790000
H       -2.25720000      -1.93890000      -1.88280000
H       -1.33520000      -1.69550000      -3.36330000
H       -2.05490000      -3.27100000      -3.02240000
