16
Properties=species:S:1:pos:R:3 gdb_9587=T pbc="F F F"
C       -0.04070000       1.55260000      -0.11870000
C        0.01570000       0.03260000      -0.02840000
C        1.33420000      -0.67580000      -0.18310000
C        0.68060000      -0.66920000       1.18470000
C        1.28360000       0.11620000       2.28650000
O        1.19540000      -0.18200000       3.45220000
C       -1.15750000      -0.63280000      -0.53300000
C       -2.14840000      -1.16400000      -0.95980000
H        0.89550000       2.01420000       0.20300000
H       -0.22490000       1.85150000      -1.15470000
H       -0.85190000       1.95170000       0.49690000
H        1.36130000      -1.61860000      -0.71530000
H        2.21170000      -0.05020000      -0.31490000
H        0.19700000      -1.58110000       1.51430000
H        1.85720000       1.01630000       1.96950000
H       -3.02180000      -1.63820000      -1.33420000
