19
Properties=species:S:1:pos:R:3 gdb_52461=T pbc="F F F"
O        0.41560000       1.55210000      -1.48220000
C        0.30930000       1.87220000      -0.31640000
N        1.22210000       1.59520000       0.65140000
C        2.47560000       0.91490000       0.36300000
C        3.60560000       1.87410000      -0.03170000
C        4.90770000       1.12500000      -0.34150000
N        6.00330000       2.00940000      -0.70840000
C        6.83550000       2.55410000       0.21750000
O        6.78640000       2.33320000       1.40980000
H       -0.56580000       2.42160000       0.08450000
H        1.06840000       1.96810000       1.57450000
H        2.76110000       0.32860000       1.24310000
H        2.27540000       0.21720000      -0.45520000
H        3.28660000       2.44990000      -0.90760000
H        3.79480000       2.58510000       0.78010000
H        5.23530000       0.56540000       0.53930000
H        4.75300000       0.40950000      -1.15650000
H        6.08660000       2.31480000      -1.66470000
H        7.58680000       3.22530000      -0.24460000
