15
Properties=species:S:1:pos:R:3 gdb_25202=T pbc="F F F"
N        0.06350000       0.99370000      -0.92850000
C        0.02900000       0.00460000      -0.14040000
O        1.22330000      -0.41570000       0.39800000
C        1.53050000      -1.41990000       1.25470000
C        0.74990000      -2.32930000       1.85240000
C       -0.67500000      -2.49290000       1.74370000
C       -1.54880000      -1.76980000       1.01710000
C       -1.32650000      -0.62890000       0.14050000
N       -2.35650000      -0.12730000      -0.43390000
H        1.01660000       1.33720000      -1.04400000
H        2.60110000      -1.40570000       1.42360000
H        1.27920000      -3.02260000       2.49730000
H       -1.08890000      -3.30960000       2.32860000
H       -2.59950000      -2.03730000       1.05470000
H       -2.06120000       0.66160000      -1.01680000
