25
Properties=species:S:1:pos:R:3 gdb_103590=T pbc="F F F"
C        0.65960000       1.34200000      -0.51960000
C        0.23500000      -0.08250000      -0.87800000
C       -1.16080000      -0.08430000      -1.50040000
C        1.30290000      -0.87000000      -1.70870000
C        1.53150000      -1.85020000      -0.51560000
C        1.23460000      -3.31700000      -0.82340000
C        2.92500000      -1.68980000       0.10070000
O        3.06270000      -2.31040000       1.37000000
C        0.41840000      -1.10920000       0.28790000
H        1.65780000       1.36540000      -0.07010000
H        0.68020000       1.98250000      -1.40950000
H       -0.03670000       1.79010000       0.19900000
H       -1.18630000       0.52260000      -2.41340000
H       -1.48000000      -1.09790000      -1.76590000
H       -1.90280000       0.32650000      -0.80550000
H        0.90280000      -1.34950000      -2.60700000
H        2.18340000      -0.28750000      -2.00080000
H        1.97560000      -3.73780000      -1.51480000
H        1.23300000      -3.92580000       0.08920000
H        0.24860000      -3.43340000      -1.28410000
H        3.68430000      -2.05810000      -0.61030000
H        3.13510000      -0.62890000       0.27360000
H        3.01710000      -3.26250000       1.24210000
H        0.75480000      -0.68690000       1.23850000
H       -0.46860000      -1.71880000       0.48450000
