19
Properties=species:S:1:pos:R:3 gdb_131809=T pbc="F F F"
O        0.01530000       1.35690000      -0.43580000
C        0.01010000       0.03180000       0.07450000
C       -1.37780000      -0.55320000      -0.14810000
C       -1.49250000      -2.00450000       0.34880000
C       -2.85410000      -2.59390000       0.13250000
N       -3.66730000      -2.81590000       1.16500000
N       -4.78990000      -3.31930000       0.61390000
C       -4.71790000      -3.42670000      -0.73400000
C       -3.47070000      -2.96350000      -1.08960000
H        0.88510000       1.73550000      -0.27880000
H        0.76300000      -0.59370000      -0.43420000
H        0.25130000       0.01720000       1.15020000
H       -2.11470000       0.07360000       0.36610000
H       -1.61190000      -0.49980000      -1.21760000
H       -0.74040000      -2.62110000      -0.16080000
H       -1.27000000      -2.05020000       1.42000000
H       -5.55550000      -3.57250000       1.21420000
H       -5.53670000      -3.81740000      -1.31750000
H       -3.06080000      -2.90180000      -2.08490000
