21
Properties=species:S:1:pos:R:3 gdb_83024=T pbc="F F F"
C       -0.14270000       1.52380000       0.00270000
C        0.04770000       0.02700000       0.09730000
C        1.36640000      -0.68890000      -0.15650000
C        2.67380000       0.09620000      -0.06600000
C        2.72860000       0.53670000       1.38150000
C        1.68830000       0.09310000       2.09550000
C        1.40620000       0.29950000       3.54960000
C        0.75250000      -0.69990000       1.22860000
O        0.18870000      -1.86630000       1.75990000
H        0.68270000       2.06940000       0.46690000
H       -0.20910000       1.84140000      -1.04410000
H       -1.06860000       1.83500000       0.49970000
H       -0.79470000      -0.54990000      -0.28110000
H        1.32890000      -1.58370000      -0.76630000
H        3.53650000      -0.52800000      -0.33340000
H        2.69300000       0.95290000      -0.75360000
H        3.51960000       1.17150000       1.76750000
H        2.22180000       0.82910000       4.04860000
H        0.48380000       0.87610000       3.70100000
H        1.26070000      -0.66420000       4.05100000
H       -0.66800000      -1.63960000       2.13610000
