18
Properties=species:S:1:pos:R:3 gdb_14731=T pbc="F F F"
C       -0.02650000       1.34180000       0.30190000
O       -0.04110000      -0.00440000      -0.10830000
C       -1.30870000      -0.60470000       0.02360000
C       -1.18380000      -2.05850000      -0.44420000
C       -2.44400000      -2.78350000      -0.35610000
C       -3.49730000      -3.35920000      -0.26750000
C       -4.76860000      -4.06640000      -0.18970000
O       -5.02740000      -4.44440000       1.15810000
H        0.99100000       1.71520000       0.16360000
H       -0.71620000       1.95890000      -0.29570000
H       -0.30390000       1.44910000       1.36250000
H       -1.65330000      -0.57360000       1.06980000
H       -2.06060000      -0.07540000      -0.58430000
H       -0.81420000      -2.06190000      -1.47690000
H       -0.41520000      -2.55490000       0.16030000
H       -5.56850000      -3.41530000      -0.57950000
H       -4.72960000      -4.94890000      -0.84930000
H       -5.86900000      -4.91170000       1.16700000
