19
Properties=species:S:1:pos:R:3 gdb_62054=T pbc="F F F"
N       -0.45000000       1.68860000      -1.10840000
C       -0.82540000       0.71110000      -0.08700000
C       -2.09420000      -0.03420000      -0.56290000
O       -2.53960000      -1.04120000       0.31060000
C       -3.15670000      -0.57480000       1.47690000
C       -3.34690000      -1.57860000       2.56330000
C       -2.36060000      -0.44260000       2.75380000
C        0.25320000      -0.24130000       0.25130000
N        1.13390000      -0.95390000       0.48360000
H        0.30900000       2.27340000      -0.77340000
H       -0.09990000       1.21000000      -1.93410000
H       -1.07350000       1.25820000       0.82810000
H       -2.86620000       0.72790000      -0.73950000
H       -1.87980000      -0.53030000      -1.51530000
H       -3.95310000       0.14680000       1.29140000
H       -4.27730000      -1.56980000       3.11920000
H       -2.93020000      -2.56290000       2.38340000
H       -1.30880000      -0.70160000       2.71030000
H       -2.61000000       0.35890000       3.44120000
