19
Properties=species:S:1:pos:R:3 gdb_68295=T pbc="F F F"
O       -0.28260000       1.29720000      -0.07350000
C       -0.02170000      -0.05650000      -0.03400000
C        0.67330000      -0.96870000      -1.09940000
C        0.20120000      -1.92340000       0.04020000
C        0.72660000      -0.87900000       1.06510000
C       -1.12760000      -1.12760000       0.04320000
C       -2.25540000      -1.18290000       1.08700000
C       -3.17680000      -1.30940000      -0.14090000
O       -2.05040000      -1.27830000      -1.04320000
H        0.55060000       1.77230000      -0.16030000
H        0.17070000      -1.06620000      -2.06140000
H        1.75580000      -0.85150000      -1.20420000
H        0.32370000      -3.00270000       0.08310000
H        1.81190000      -0.75640000       1.09840000
H        0.28990000      -0.89080000       2.06680000
H       -2.23740000      -2.05010000       1.74980000
H       -2.38110000      -0.27450000       1.67850000
H       -3.73750000      -2.24740000      -0.22590000
H       -3.85610000      -0.46680000      -0.31220000
