19
Properties=species:S:1:pos:R:3 gdb_117414=T pbc="F F F"
C        0.46260000       1.29030000      -0.22780000
C       -0.40330000       0.15220000       0.31480000
N        0.21110000      -0.53560000       1.44200000
C        0.64470000      -1.82430000       1.38200000
O        0.55620000      -2.52090000       0.38520000
C        1.23860000      -2.35580000       2.68940000
C        2.03390000      -3.64590000       2.43350000
C        2.51520000      -4.25030000       3.67240000
N        2.89010000      -4.71510000       4.66180000
H        1.42520000       0.91060000      -0.58220000
H       -0.04140000       1.78560000      -1.06340000
H        0.65610000       2.04720000       0.54040000
H       -1.38580000       0.53420000       0.61820000
H       -0.56450000      -0.61010000      -0.44980000
H        0.34900000      -0.02100000       2.29720000
H        1.87260000      -1.59890000       3.16320000
H        0.41840000      -2.55830000       3.38810000
H        1.40270000      -4.35690000       1.89350000
H        2.88830000      -3.44140000       1.78060000
