21
Properties=species:S:1:pos:R:3 gdb_96127=T pbc="F F F"
C       -0.02840000       1.48760000      -0.02070000
C        0.01710000      -0.03630000       0.01170000
O        0.65110000      -0.44190000      -1.19110000
C        0.86630000      -1.83650000      -1.27070000
C        1.94110000      -2.28850000      -0.27930000
C        1.69020000      -1.67860000       1.08710000
O        2.14000000      -0.32890000       1.27730000
C        0.72870000      -0.57130000       1.25690000
C        0.01440000      -0.37330000       2.57480000
H        0.98650000       1.88790000       0.04650000
H       -0.47500000       1.82000000      -0.96100000
H       -0.62320000       1.88590000       0.80540000
H       -1.01210000      -0.44090000       0.02910000
H       -0.07570000      -2.37730000      -1.07500000
H        1.16340000      -2.04630000      -2.30230000
H        1.94500000      -3.38190000      -0.20680000
H        2.93250000      -1.97730000      -0.62570000
H        1.88020000      -2.32180000       1.94750000
H       -0.10350000       0.69040000       2.80440000
H       -0.98280000      -0.82590000       2.55170000
H        0.58410000      -0.83120000       3.38710000
