12
Properties=species:S:1:pos:R:3 gdb_130502=T pbc="F F F"
O       -0.02100000       1.32850000       0.00940000
N        1.30210000       1.81540000      -0.00070000
C        2.10080000       0.78730000      -0.01390000
C        1.36300000      -0.44500000      -0.01340000
C        0.03680000      -0.01440000       0.00160000
C       -0.97550000      -0.96880000       0.00620000
N       -0.63000000      -2.25190000      -0.00400000
C        0.68140000      -2.56560000      -0.01830000
N        1.71900000      -1.73380000      -0.02380000
H        3.16980000       0.94370000      -0.02340000
H       -2.03170000      -0.71550000       0.01780000
H        0.91050000      -3.62700000      -0.02620000
