18
Properties=species:S:1:pos:R:3 gdb_30017=T pbc="F F F"
C        0.01790000       1.43660000       0.07550000
N       -0.01900000      -0.00850000       0.01490000
C        0.03390000      -0.80350000      -1.13420000
C        0.03000000      -2.13260000      -0.76580000
C       -0.02940000      -2.16480000       0.65800000
C       -0.04760000      -0.86650000       1.06410000
O       -0.06070000      -0.60410000       2.39300000
C       -0.25820000      -1.92540000       2.99310000
C       -0.00100000      -3.01800000       1.89740000
H        1.02790000       1.82470000      -0.10000000
H       -0.65630000       1.86290000      -0.67260000
H       -0.31040000       1.75720000       1.06580000
H        0.04990000      -0.33820000      -2.10640000
H        0.05170000      -2.96650000      -1.45110000
H        0.41780000      -1.99380000       3.84740000
H       -1.29200000      -1.96640000       3.35220000
H       -0.77570000      -3.79090000       1.94570000
H        0.96290000      -3.52120000       2.05160000
