21
Properties=species:S:1:pos:R:3 gdb_119639=T pbc="F F F"
C       -0.08630000       1.51310000       0.01160000
C       -0.03040000      -0.00450000      -0.01030000
O       -1.36210000      -0.49950000       0.03020000
C       -1.45510000      -1.87510000       0.01530000
C       -1.07130000      -2.72090000      -1.24060000
C       -2.14560000      -3.69170000      -0.75370000
C       -2.08950000      -3.71220000       0.78390000
C       -0.98190000      -2.75360000       1.21720000
C       -2.84370000      -2.62680000       0.05590000
H        0.92390000       1.93230000      -0.01860000
H       -0.64490000       1.88860000      -0.85040000
H       -0.58230000       1.86540000       0.92040000
H        0.47730000      -0.36050000      -0.92020000
H        0.53980000      -0.38380000       0.85170000
H       -1.38230000      -2.21300000      -2.15800000
H       -0.03750000      -3.07360000      -1.33370000
H       -2.60210000      -4.50450000      -1.30300000
H       -2.50560000      -4.53990000       1.34310000
H        0.05570000      -3.10750000       1.22540000
H       -1.22490000      -2.27060000       2.16790000
H       -3.86680000      -2.28500000       0.09780000
