14
Properties=species:S:1:pos:R:3 gdb_132862=T pbc="F F F"
C       -0.01760000       1.54400000       0.00610000
C       -0.00140000       0.04010000       0.00120000
C       -0.03560000      -0.67660000      -1.14090000
O       -0.02220000      -2.02690000      -1.17990000
C        0.02880000      -2.82270000      -0.04060000
O        0.03630000      -4.01670000      -0.15270000
C        0.06520000      -2.05520000       1.19930000
F        0.11330000      -2.78060000       2.30850000
C        0.05170000      -0.70710000       1.22870000
H        0.87870000       1.94950000       0.48890000
H       -0.05970000       1.94140000      -1.01110000
H       -0.88410000       1.93030000       0.55450000
H       -0.07680000      -0.25080000      -2.13590000
H        0.08100000      -0.19570000       2.18560000
