19
Properties=species:S:1:pos:R:3 gdb_103086=T pbc="F F F"
C       -0.12230000       1.59400000      -0.17860000
C       -0.07920000       0.08320000      -0.09910000
C       -1.29750000      -0.56590000       0.53560000
O       -1.40690000      -0.33600000       1.93070000
C        0.63390000      -0.71490000      -1.17740000
N        1.32340000      -0.15350000      -2.30150000
C        1.24810000      -0.61660000       0.21470000
C        2.44070000       0.16050000       0.38370000
N        3.39870000       0.80290000       0.48630000
H        0.74670000       2.00500000      -0.69560000
H       -1.02000000       1.91950000      -0.71720000
H       -0.14390000       2.04390000       0.82000000
H       -2.20180000      -0.23170000       0.00200000
H       -1.24000000      -1.65390000       0.42390000
H       -1.59750000       0.59650000       2.07070000
H        0.19680000      -1.68910000      -1.39030000
H        0.70400000       0.39120000      -2.89110000
H        2.10080000       0.43560000      -2.02480000
H        1.20090000      -1.49520000       0.84910000
