21
Properties=species:S:1:pos:R:3 gdb_89711=T pbc="F F F"
C       -0.15760000       1.49780000       0.27810000
C       -0.09880000      -0.01110000       0.19690000
C       -1.33620000      -0.68340000      -0.35470000
O        1.15100000      -0.54170000      -0.30560000
C        0.82880000      -0.76070000       1.05710000
C        1.68060000      -0.27620000       2.23700000
C        1.22770000      -1.53460000       3.02040000
O        0.22170000      -1.16230000       3.94370000
C        0.67400000      -2.14700000       1.69560000
H        0.78490000       1.90900000       0.64500000
H       -0.35380000       1.92540000      -0.71140000
H       -0.96340000       1.81870000       0.94730000
H       -1.55590000      -0.31000000      -1.36100000
H       -1.20240000      -1.76540000      -0.41650000
H       -2.20620000      -0.47270000       0.27710000
H        2.74750000      -0.28540000       1.99820000
H        1.41720000       0.67390000       2.70620000
H        2.02480000      -2.10740000       3.51010000
H       -0.17140000      -1.96800000       4.29480000
H       -0.33060000      -2.57530000       1.75100000
H        1.35510000      -2.87620000       1.24620000
