18
Properties=species:S:1:pos:R:3 gdb_124883=T pbc="F F F"
C       -0.35380000       1.22650000      -0.93020000
C       -0.06240000       0.03250000      -0.04500000
C        1.11520000      -0.82630000      -0.37680000
N        1.14610000       0.04470000       0.80740000
C       -1.24520000      -0.59390000       0.60400000
N       -2.46510000      -0.45500000       0.08410000
N       -3.26450000      -1.15760000       0.91050000
C       -2.59270000      -1.73240000       1.93790000
C       -1.26990000      -1.38870000       1.77610000
H        0.56420000       1.58930000      -1.40410000
H       -1.06940000       0.96180000      -1.71280000
H       -0.79280000       2.04390000      -0.34880000
H        1.08400000      -1.89030000      -0.15970000
H        1.70950000      -0.55590000      -1.24650000
H        1.69110000       0.88050000       0.60960000
H       -4.25110000      -1.19110000       0.72040000
H       -3.09890000      -2.32070000       2.68710000
H       -0.43550000      -1.64150000       2.40760000
