17
Properties=species:S:1:pos:R:3 gdb_67676=T pbc="F F F"
O        0.03660000       1.39340000      -0.12330000
C        0.07290000       0.03060000      -0.00530000
C       -0.16760000      -0.85210000      -1.23470000
C        0.72740000      -2.07220000      -1.44380000
C        0.49640000      -2.87740000      -0.13000000
N       -0.15390000      -1.92940000       0.81510000
C       -1.02430000      -1.05660000      -0.02490000
C        0.72930000      -0.78120000       1.04310000
N        1.60190000      -0.52050000       1.91310000
H        0.07440000       1.76450000       0.76670000
H       -0.56770000      -0.30210000      -2.08000000
H        0.41880000      -2.63820000      -2.32780000
H        1.77670000      -1.79310000      -1.57600000
H       -0.18200000      -3.71970000      -0.29230000
H        1.41810000      -3.26150000       0.31270000
H       -2.09710000      -1.00750000       0.09500000
H        1.73410000      -1.31490000       2.54310000
