16
Properties=species:S:1:pos:R:3 gdb_31556=T pbc="F F F"
C        0.00480000       1.36000000      -0.06740000
N       -0.09620000      -0.05890000       0.22910000
C       -1.29790000      -0.68570000       0.08630000
N       -2.46940000      -0.12080000      -0.03010000
C       -3.33850000      -1.19790000      -0.07210000
O       -4.66540000      -0.99950000      -0.18740000
C       -2.68260000      -2.37910000       0.00790000
N       -3.06680000      -3.70370000       0.00110000
O       -1.29820000      -2.02250000       0.11310000
H        0.98600000       1.71750000       0.25170000
H       -0.13230000       1.58830000      -1.13330000
H       -0.76430000       1.89540000       0.49260000
H        0.70030000      -0.63370000       0.00240000
H       -4.79090000      -0.04370000      -0.21610000
H       -2.85090000      -4.20720000       0.85450000
H       -2.73250000      -4.23480000      -0.79560000
