18
Properties=species:S:1:pos:R:3 gdb_26625=T pbc="F F F"
C       -0.08260000       1.52000000       0.11780000
C       -0.01390000       0.03530000      -0.02730000
C       -0.00210000      -0.77780000      -1.13900000
C       -0.05780000      -0.37390000      -2.57940000
C        0.07600000      -2.13870000      -0.66840000
C        0.10840000      -2.09410000       0.71260000
N        0.05380000      -0.78270000       1.08460000
C        0.11240000      -3.29880000      -1.47460000
C        0.14200000      -4.27120000      -2.18690000
H        0.79590000       1.92490000       0.63620000
H       -0.13020000       1.99660000      -0.86310000
H       -0.96960000       1.83880000       0.68000000
H        0.82540000      -0.72260000      -3.12670000
H       -0.92980000      -0.80720000      -3.08250000
H       -0.11310000       0.71190000      -2.69490000
H        0.16530000      -2.89050000       1.43600000
H        0.06160000      -0.45430000       2.03460000
H        0.16850000      -5.13190000      -2.80700000
