18
Properties=species:S:1:pos:R:3 gdb_72822=T pbc="F F F"
C       -0.13900000       1.55380000      -0.03510000
C       -0.00500000       0.04210000       0.00210000
C       -1.23940000      -0.80930000       0.40210000
N       -0.34010000      -1.68680000       1.18700000
C        0.72010000      -0.64610000       1.18220000
C        2.04600000      -1.16090000       0.64150000
O        2.98880000      -1.58740000       1.24200000
O        2.02400000      -1.06230000      -0.71580000
C        0.77770000      -0.53880000      -1.20510000
H        0.84180000       2.03280000      -0.13100000
H       -0.74780000       1.87240000      -0.88920000
H       -0.61320000       1.93520000       0.87430000
H       -1.94920000      -0.22860000       1.00720000
H       -1.79060000      -1.31830000      -0.39700000
H       -0.66860000      -1.97090000       2.10180000
H        0.84920000      -0.07620000       2.10730000
H        0.23410000      -1.35220000      -1.69600000
H        1.01800000       0.22470000      -1.95020000
