19
Properties=species:S:1:pos:R:3 gdb_40560=T pbc="F F F"
C       -0.09640000       1.20430000      -0.34200000
C        1.15870000       0.49560000       0.05240000
N       -0.11680000       0.09710000       0.61130000
C       -0.67210000      -1.12850000       0.23760000
N        0.03970000      -2.14840000      -0.01600000
C       -0.61850000      -3.43230000      -0.22170000
C       -2.06920000      -3.45430000       0.27080000
C       -2.74700000      -2.17440000      -0.19520000
O       -2.02730000      -1.02260000       0.26390000
H       -0.33780000       2.17980000       0.06930000
H       -0.48410000       1.01660000      -1.34010000
H        1.60920000      -0.18130000      -0.66700000
H        1.84650000       0.95870000       0.75360000
H       -0.58020000      -3.68150000      -1.29200000
H       -0.02920000      -4.20420000       0.28690000
H       -2.60860000      -4.32820000      -0.10870000
H       -2.09650000      -3.49540000       1.36560000
H       -2.80260000      -2.14240000      -1.29230000
H       -3.75870000      -2.06340000       0.20190000
