14
Properties=species:S:1:pos:R:3 gdb_44042=T pbc="F F F"
O       -0.14200000       0.16200000      -0.55540000
C       -0.00300000       1.24050000      -0.09440000
O       -1.01250000       2.08190000       0.42610000
C       -0.01030000       3.00980000       0.91050000
C        0.74110000       2.93870000       2.23990000
C        1.83610000       3.20000000       1.17700000
C        0.89740000       4.13060000       0.27900000
N        1.21550000       3.38350000      -0.96560000
C        1.09020000       2.32350000       0.10060000
H        0.55540000       3.72760000       2.97110000
H        0.78210000       1.95650000       2.71800000
H        2.91090000       3.32930000       1.30520000
H        0.81080000       5.21930000       0.32120000
H        0.39830000       3.37030000      -1.58380000
