20
Properties=species:S:1:pos:R:3 gdb_104132=T pbc="F F F"
C       -0.13310000       1.34860000       0.23880000
O       -0.17030000      -0.06990000       0.20050000
C       -1.40860000      -0.66350000      -0.10450000
C       -1.95450000      -0.26310000      -1.46770000
C       -1.21390000      -2.17080000       0.12380000
C       -1.43610000      -2.29990000       1.63520000
C       -2.39590000      -1.16930000       1.93320000
N       -3.11180000      -1.04940000       2.96450000
O       -2.39070000      -0.28180000       0.88460000
H        0.82030000       1.61800000       0.69820000
H       -0.17340000       1.78980000      -0.76560000
H       -0.95070000       1.75500000       0.84380000
H       -1.22250000      -0.50250000      -2.24390000
H       -2.88110000      -0.80340000      -1.67290000
H       -2.17270000       0.80640000      -1.50750000
H       -1.97260000      -2.72740000      -0.43320000
H       -0.22620000      -2.48790000      -0.21120000
H       -1.84740000      -3.25620000       1.95850000
H       -0.50530000      -2.12860000       2.18400000
H       -3.65990000      -0.18830000       2.92110000
