23
Properties=species:S:1:pos:R:3 gdb_93869=T pbc="F F F"
C       -0.24890000       1.52730000      -0.02520000
C        0.06790000       0.03550000       0.01410000
C        0.88610000      -0.48420000      -1.19250000
C        1.65520000      -1.73450000      -0.68490000
C        1.26110000      -1.90630000       0.80190000
C        2.30060000      -2.62260000       1.65850000
C        0.88090000      -0.46280000       1.24530000
C        2.05090000       0.36710000       1.51870000
C        3.01860000       1.04920000       1.73430000
H        0.66920000       2.12250000      -0.01860000
H       -0.81060000       1.77880000      -0.93120000
H       -0.85340000       1.83250000       0.83580000
H       -0.87930000      -0.51870000       0.05010000
H        0.23710000      -0.70420000      -2.04510000
H        1.58820000       0.28880000      -1.52180000
H        1.42590000      -2.63520000      -1.26160000
H        2.73580000      -1.57630000      -0.76340000
H        0.32440000      -2.47750000       0.84420000
H        3.24130000      -2.06420000       1.68050000
H        1.95650000      -2.74200000       2.69160000
H        2.50740000      -3.62140000       1.25970000
H        0.25240000      -0.48430000       2.14410000
H        3.86830000       1.65320000       1.93630000
