21
Properties=species:S:1:pos:R:3 gdb_121294=T pbc="F F F"
C        0.00890000       1.49730000      -0.05850000
C        0.04100000      -0.01920000       0.00930000
O        0.73450000      -0.49870000      -1.13900000
C        0.78340000      -1.87670000      -1.25070000
C        1.38130000      -2.24290000      -2.60500000
C        1.74810000      -3.70380000      -2.62830000
C        1.82980000      -4.42180000      -1.51100000
C        1.60900000      -3.80390000      -0.15760000
O        1.59210000      -2.38910000      -0.19890000
H        1.02500000       1.90190000      -0.06500000
H       -0.49930000       1.83380000      -0.96680000
H       -0.52060000       1.90450000       0.80800000
H        0.54580000      -0.36280000       0.91980000
H       -0.98130000      -0.43140000       0.01950000
H       -0.23240000      -2.31270000      -1.15150000
H        0.66010000      -2.00960000      -3.39690000
H        2.25800000      -1.60640000      -2.77970000
H        1.93210000      -4.16320000      -3.59550000
H        2.06080000      -5.48340000      -1.53360000
H        0.67370000      -4.19310000       0.28730000
H        2.41900000      -4.07710000       0.52880000
