20
Properties=species:S:1:pos:R:3 gdb_80874=T pbc="F F F"
C       -0.03040000       1.50060000       0.05030000
C       -0.01520000      -0.00970000      -0.00410000
C        0.43700000      -0.81350000      -1.26160000
C       -0.31640000      -1.98500000      -0.57440000
C        0.47060000      -2.18180000       0.73340000
N        1.84460000      -1.61270000       0.73380000
C        0.68370000      -0.78000000       1.14260000
C       -1.32450000      -0.86320000      -0.11610000
O       -2.07220000      -0.99880000       1.06700000
H        0.98750000       1.90470000       0.02480000
H       -0.58080000       1.92590000      -0.79570000
H       -0.50740000       1.85490000       0.97120000
H       -0.07000000      -0.46960000      -2.16560000
H        1.50400000      -0.93080000      -1.42760000
H       -0.63680000      -2.86890000      -1.12650000
H        0.21170000      -2.96900000       1.43050000
H        2.31360000      -1.93080000       1.58020000
H        0.59470000      -0.43620000       2.16610000
H       -1.95600000      -0.52290000      -0.94790000
H       -2.87640000      -1.48620000       0.86490000
