17
Properties=species:S:1:pos:R:3 gdb_82830=T pbc="F F F"
O        0.17670000       1.37870000      -0.08810000
C        0.00050000      -0.00640000      -0.00550000
C        0.24800000      -0.66860000       1.36890000
O       -0.39790000       0.13610000       2.38640000
C       -1.67800000      -0.50260000       2.12260000
C       -2.40360000       0.14360000       0.92170000
C       -1.43910000      -0.62020000      -0.02280000
O       -1.92360000      -1.15180000      -1.21560000
C       -1.01460000      -1.54770000       1.17880000
H       -0.02310000       1.71700000       0.79620000
H        0.59090000      -0.49030000      -0.79200000
H        1.25030000      -0.98240000       1.66360000
H       -2.22470000      -0.70650000       3.04380000
H       -3.41200000      -0.26970000       0.81940000
H       -2.43870000       1.23570000       0.87180000
H       -2.00160000      -0.43380000      -1.85480000
H       -1.08880000      -2.62900000       1.22700000
