20
Properties=species:S:1:pos:R:3 gdb_17817=T pbc="F F F"
C       -0.02150000       1.54050000      -0.28020000
C       -0.00000000       0.04820000      -0.02720000
C        1.27750000      -0.74590000      -0.14430000
C        0.61880000      -0.57550000       1.20810000
C        1.27450000       0.22810000       2.29640000
C        0.42980000       0.61490000       3.53560000
O        1.38320000       0.01180000       4.43270000
C        2.14280000      -0.52830000       3.33270000
H        0.90680000       2.02480000       0.03610000
H       -0.14620000       1.74770000      -1.34870000
H       -0.84830000       2.02670000       0.25000000
H       -0.89290000      -0.46160000      -0.38080000
H        1.25530000      -1.72090000      -0.61860000
H        2.19230000      -0.18820000      -0.32370000
H        0.09650000      -1.45320000       1.58460000
H        1.80490000       1.08800000       1.88160000
H        0.29710000       1.68530000       3.73290000
H       -0.55090000       0.12050000       3.58540000
H        2.06310000      -1.62320000       3.27620000
H        3.20260000      -0.25290000       3.38900000
