19
Properties=species:S:1:pos:R:3 gdb_56834=T pbc="F F F"
C        0.74960000      -0.38700000      -1.62760000
C        0.15200000      -0.11780000      -0.23710000
C        0.00300000       1.32760000      -0.00400000
N       -0.10380000       2.46130000       0.19180000
N       -1.18170000      -0.73240000      -0.15850000
C       -1.89400000      -0.77720000       1.18860000
C       -2.75630000      -1.90480000       0.56460000
C       -1.27390000      -2.20720000       0.22680000
C       -0.92370000      -1.87700000       1.70640000
H        1.72050000       0.10290000      -1.73490000
H        0.88820000      -1.46330000      -1.76210000
H        0.07330000      -0.02230000      -2.40310000
H        0.86740000      -0.47700000       0.51990000
H       -2.22390000       0.13680000       1.68250000
H       -3.25040000      -2.58650000       1.25770000
H       -3.38080000      -1.60870000      -0.27780000
H       -0.87490000      -2.99340000      -0.41570000
H        0.10050000      -1.58600000       1.94030000
H       -1.30850000      -2.55880000       2.46900000
