15
Properties=species:S:1:pos:R:3 gdb_30631=T pbc="F F F"
O        0.00300000       1.41240000       0.00990000
C       -0.01270000       0.01030000       0.00350000
C       -1.46090000      -0.48130000       0.01250000
O       -2.39840000       0.28350000       0.02310000
C       -1.65870000      -1.94480000       0.00760000
C       -0.72940000      -2.94840000      -0.00360000
O       -1.33010000      -4.15630000      -0.00430000
C       -2.67980000      -3.93120000       0.00660000
C       -2.93880000      -2.60400000       0.01420000
H        0.92080000       1.69900000       0.00370000
H        0.47950000      -0.41590000      -0.88800000
H        0.49340000      -0.42420000       0.88300000
H        0.34840000      -2.96380000      -0.01170000
H       -3.29470000      -4.81540000       0.00740000
H       -3.89840000      -2.11420000       0.02340000
