21
Properties=species:S:1:pos:R:3 gdb_53074=T pbc="F F F"
C       -0.08900000       1.55840000      -0.36680000
C        0.00840000       0.11750000      -0.19480000
C        0.10580000      -1.07880000      -0.05910000
C        0.15320000      -2.48140000       0.12370000
C        1.16450000      -3.30630000      -0.19320000
C        0.87950000      -4.73260000       0.19530000
C       -0.64730000      -4.73190000       0.47740000
C       -1.09710000      -5.72070000       1.55150000
C       -0.98220000      -3.25060000       0.78560000
H        0.76840000       2.07310000       0.08180000
H       -0.11790000       1.83170000      -1.42810000
H       -0.99640000       1.95590000       0.10130000
H        2.09900000      -2.98490000      -0.63830000
H        1.16220000      -5.45620000      -0.57830000
H        1.45210000      -5.00970000       1.09470000
H       -1.14840000      -4.98790000      -0.46450000
H       -0.61970000      -5.49890000       2.51310000
H       -2.18130000      -5.68120000       1.70150000
H       -0.83710000      -6.74970000       1.28020000
H       -0.98620000      -3.05360000       1.86750000
H       -1.96640000      -2.95110000       0.41140000
