23
Properties=species:S:1:pos:R:3 gdb_57386=T pbc="F F F"
C       -0.13310000       1.55590000       0.03700000
C        0.00410000       0.01900000       0.03840000
C        0.77570000      -0.39970000       1.30290000
C       -1.39920000      -0.62220000       0.06360000
C        0.72230000      -0.44300000      -1.22190000
C        1.61510000      -1.66960000      -1.34660000
C        2.14220000      -0.32070000      -1.73250000
O        1.73700000       0.01250000      -3.06050000
C        0.34260000      -0.03730000      -2.65360000
H        0.84860000       2.03910000      -0.00360000
H       -0.71990000       1.91360000      -0.81430000
H       -0.63910000       1.89450000       0.94740000
H        0.27980000      -0.00090000       2.19380000
H        0.82080000      -1.48720000       1.41100000
H        1.80100000      -0.01340000       1.29420000
H       -1.98870000      -0.32530000      -0.81090000
H       -1.33100000      -1.71490000       0.06750000
H       -1.95340000      -0.31350000       0.95670000
H        1.99220000      -2.06900000      -0.41180000
H        1.43990000      -2.40880000      -2.12460000
H        3.04030000       0.14520000      -1.34200000
H       -0.23900000      -0.75600000      -3.24380000
H       -0.10970000       0.95630000      -2.73620000
