19
Properties=species:S:1:pos:R:3 gdb_31032=T pbc="F F F"
C        0.07980000       1.57760000       0.40910000
C       -0.00730000       0.13720000      -0.12250000
C       -1.38990000      -0.43700000      -0.05470000
C       -2.16780000      -0.78130000      -1.11280000
N       -1.94310000      -0.73490000      -2.48810000
O       -3.39530000      -1.26930000      -0.65040000
C       -3.35110000      -1.22010000       0.69910000
N       -4.52350000      -1.59420000       1.34610000
C       -2.15850000      -0.72610000       1.13280000
H        1.10580000       1.95500000       0.34980000
H       -0.56360000       2.24590000      -0.17160000
H       -0.24040000       1.63650000       1.45440000
H        0.32750000       0.10680000      -1.16400000
H        0.68290000      -0.49590000       0.45110000
H       -1.96690000      -1.65300000      -2.92210000
H       -2.61210000      -0.14540000      -2.97410000
H       -5.00460000      -2.34790000       0.87080000
H       -4.36920000      -1.83010000       2.31690000
H       -1.85490000      -0.58550000       2.15850000
