18
Properties=species:S:1:pos:R:3 gdb_23469=T pbc="F F F"
O       -0.04710000       1.34680000      -0.05710000
N        0.03650000      -0.05740000      -0.06560000
C       -1.11590000      -0.61120000      -0.00990000
C       -2.43600000       0.10730000       0.13230000
C       -3.36840000      -0.71400000       1.03010000
O       -3.59740000      -2.00480000       0.48430000
C       -2.44400000      -2.78350000       0.34180000
C       -1.88900000      -2.90480000      -1.04320000
C       -1.13700000      -2.09390000       0.01130000
H        0.88180000       1.59940000      -0.06080000
H       -2.26670000       1.10410000       0.54460000
H       -2.91010000       0.23540000      -0.84910000
H       -2.94710000      -0.78870000       2.04430000
H       -4.35190000      -0.24270000       1.10440000
H       -2.41860000      -3.64440000       1.00670000
H       -1.43840000      -3.83890000      -1.35860000
H       -2.42190000      -2.36370000      -1.81640000
H       -0.22320000      -2.54330000       0.38260000
