15
Properties=species:S:1:pos:R:3 gdb_44840=T pbc="F F F"
O       -0.00150000       0.00920000       0.00640000
C       -0.02480000       1.20630000       0.01440000
C       -1.26130000       2.12960000       0.02730000
C       -0.58780000       3.50950000       0.02260000
C        0.62280000       3.30080000      -0.90270000
C        1.19070000       2.16420000      -0.01670000
C        1.14890000       2.87330000       1.34520000
O        1.87820000       2.77910000       2.28320000
O        0.04550000       3.68630000       1.32130000
H       -1.87000000       1.95790000      -0.86610000
H       -1.88280000       1.95370000       0.90800000
H       -1.22990000       4.36870000      -0.15680000
H        0.34960000       2.98030000      -1.91090000
H        1.27510000       4.17480000      -0.95470000
H        2.14130000       1.69270000      -0.24400000
