17
Properties=species:S:1:pos:R:3 gdb_112467=T pbc="F F F"
C       -0.07180000       1.29580000      -0.32100000
O       -0.14600000      -0.12460000      -0.34400000
C       -1.30780000      -0.64430000       0.22100000
O       -2.45530000      -0.27620000      -0.56560000
C       -2.97400000      -1.06280000      -1.54270000
O       -3.77770000      -0.59950000      -2.30250000
C       -2.54910000      -2.52270000      -1.59160000
C       -1.70030000      -2.98340000      -0.44820000
C       -1.12950000      -2.12210000       0.38200000
H        0.90480000       1.56390000      -0.72770000
H       -0.86020000       1.74840000      -0.93150000
H       -0.15190000       1.67850000       0.70680000
H       -1.50800000      -0.15830000       1.18800000
H       -3.46810000      -3.11250000      -1.68050000
H       -2.02380000      -2.66970000      -2.54510000
H       -1.55440000      -4.05340000      -0.33060000
H       -0.48650000      -2.43640000       1.19640000
