19
Properties=species:S:1:pos:R:3 gdb_46285=T pbc="F F F"
O       -0.49770000       0.20870000      -0.57570000
C       -0.25640000       1.29300000      -0.12700000
C       -1.07310000       2.34290000       0.64010000
C        0.09790000       3.34340000       0.39500000
C        0.99080000       2.19340000      -0.18530000
C        2.15610000       1.72860000       0.74270000
C        3.39730000       2.11770000      -0.02280000
C        3.12290000       2.48010000      -1.27300000
C        1.64640000       2.40390000      -1.57420000
H       -2.05050000       2.58490000       0.21450000
H       -1.21600000       2.06570000       1.68980000
H       -0.14620000       4.10440000      -0.35000000
H        0.49090000       3.83810000       1.28510000
H        2.09490000       2.19150000       1.73480000
H        2.12660000       0.64160000       0.90290000
H        4.38820000       2.05430000       0.41310000
H        3.85480000       2.76290000      -2.02140000
H        1.42390000       1.55540000      -2.23670000
H        1.25950000       3.29990000      -2.07390000
