22
Properties=species:S:1:pos:R:3 gdb_115010=T pbc="F F F"
C        0.27370000       1.68380000       0.08480000
C        0.40560000       0.16350000      -0.05640000
C        0.57050000      -0.55720000       1.28290000
C       -0.64510000      -0.44530000       2.24540000
C       -0.62960000      -1.75890000       2.99290000
C        0.18970000      -2.64310000       2.42630000
C        0.84970000      -2.07360000       1.22040000
C        0.98140000      -2.84970000      -0.04700000
N        2.15840000      -2.61170000       0.80800000
H        1.15040000       2.11130000       0.58420000
H        0.17990000       2.16480000      -0.89350000
H       -0.60770000       1.95590000       0.67430000
H       -0.47240000      -0.23750000      -0.57880000
H        1.27090000      -0.05690000      -0.69690000
H        1.43340000      -0.11430000       1.80250000
H       -0.57560000       0.42410000       2.90830000
H       -1.58520000      -0.33030000       1.68480000
H       -1.24910000      -1.94300000       3.86340000
H        0.36530000      -3.66330000       2.74610000
H        0.64670000      -3.88340000      -0.08430000
H        0.90100000      -2.31850000      -0.99110000
H        2.72170000      -1.86200000       0.40970000
