17
Properties=species:S:1:pos:R:3 gdb_36438=T pbc="F F F"
N        0.01340000      -1.02040000      -0.53310000
C        0.00140000       0.11230000      -0.30390000
C        0.02140000       1.53990000       0.00060000
C        1.45200000       2.07640000       0.11540000
N        2.22950000       2.04880000      -1.15270000
C        2.61280000       3.47440000      -1.00430000
C        1.64050000       4.39810000      -1.75440000
O        0.69500000       4.34380000      -0.64680000
C        1.62240000       3.61590000       0.17610000
H       -0.49770000       2.09410000      -0.78640000
H       -0.51970000       1.71100000       0.93870000
H        1.96850000       1.59390000       0.95570000
H        3.00200000       1.39500000      -1.15800000
H        3.67670000       3.71070000      -0.98330000
H        1.99660000       5.42430000      -1.90790000
H        1.22430000       3.99270000      -2.68120000
H        1.79400000       4.08890000       1.14510000
