19
Properties=species:S:1:pos:R:3 gdb_70352=T pbc="F F F"
O        0.02050000       1.35500000      -0.00110000
C       -0.01240000      -0.04450000       0.04550000
C       -0.25380000      -0.63860000       1.40320000
C        1.09940000      -0.80110000       0.72030000
O        1.51080000      -2.02000000       0.14990000
C        0.93000000      -2.30500000      -1.11990000
C        0.83870000      -1.04650000      -2.03160000
C       -0.47320000      -0.72810000      -1.23830000
C       -0.61930000      -2.26470000      -1.05630000
H        0.63810000       1.61560000      -0.69470000
H       -0.27730000       0.06700000       2.22630000
H       -0.90630000      -1.49500000       1.51580000
H        1.93210000      -0.25260000       1.14900000
H        1.43630000      -3.20080000      -1.48120000
H        1.66400000      -0.32970000      -1.98690000
H        0.64770000      -1.32700000      -3.07000000
H       -1.28250000      -0.17080000      -1.71400000
H       -1.05990000      -2.71750000      -1.94830000
H       -1.11060000      -2.66710000      -0.16940000
