14
Properties=species:S:1:pos:R:3 gdb_56382=T pbc="F F F"
O       -0.14870000       1.41530000      -0.06280000
C       -0.06600000       0.00810000      -0.00240000
C        0.71650000      -0.45250000       1.15720000
C        1.39240000      -0.82290000       2.07730000
C       -1.44550000      -0.52080000       0.08500000
N       -2.50780000      -0.97110000       0.12090000
C        0.57940000      -0.53650000      -1.30130000
C        0.31090000       0.12070000      -2.57980000
O        1.53900000       0.35110000      -1.85600000
H        0.69470000       1.69860000      -0.45100000
H        1.97830000      -1.14490000       2.90350000
H        0.86460000      -1.58500000      -1.26420000
H        0.42310000      -0.44430000      -3.50140000
H       -0.36800000       0.96810000      -2.60890000
