18
Properties=species:S:1:pos:R:3 gdb_91187=T pbc="F F F"
C       -0.13740000       1.53080000       0.07970000
C        0.08110000       0.02480000       0.01790000
C        0.86420000      -0.46350000      -1.25140000
C        1.48360000      -1.76240000      -0.71930000
N        2.82580000      -2.25880000      -1.07820000
C        3.42440000      -2.41280000       0.04260000
N        2.71480000      -2.05750000       1.20880000
C        1.60210000      -1.37860000       0.73370000
N        0.88530000      -0.43820000       1.19100000
H        0.82240000       2.05750000       0.09000000
H       -0.71040000       1.87550000      -0.78770000
H       -0.68360000       1.80480000       0.98640000
H       -0.89820000      -0.47680000       0.04740000
H        0.22500000      -0.59450000      -2.12720000
H        1.65180000       0.25780000      -1.49660000
H        0.77580000      -2.59490000      -0.85210000
H        4.42880000      -2.81100000       0.14710000
H        3.18230000      -1.79640000       2.06390000
