18
Properties=species:S:1:pos:R:3 gdb_78339=T pbc="F F F"
C       -0.05180000       1.43140000      -0.00690000
C        0.07710000      -0.07230000       0.00290000
C        1.43680000      -0.68610000      -0.13970000
N        0.68610000      -0.66060000       1.19790000
C        0.47050000      -2.13000000       1.06240000
C        0.56080000      -3.08740000       2.21380000
C       -0.74980000      -2.88680000       1.49830000
C        1.30560000      -2.18650000      -0.19390000
O        1.80140000      -3.06310000      -0.84400000
H        0.81120000       1.89780000       0.47510000
H       -0.12590000       1.80580000      -1.03270000
H       -0.95150000       1.73870000       0.53550000
H       -0.76270000      -0.61170000      -0.43380000
H        2.32510000      -0.09400000      -0.32810000
H        1.11360000      -4.00490000       2.04280000
H        0.67510000      -2.64680000       3.19760000
H       -1.51870000      -2.31490000       2.00730000
H       -1.11460000      -3.67230000       0.84520000
