19
Properties=species:S:1:pos:R:3 gdb_94818=T pbc="F F F"
O       -0.35870000       1.46170000       0.47920000
C        0.00370000       0.15670000       0.03160000
C        0.72920000      -0.61810000       1.12370000
O       -0.31490000      -0.91840000       2.04910000
C       -1.43930000      -1.30520000       1.26560000
C       -2.02950000      -2.66630000       1.49660000
C       -2.74910000      -1.41110000       1.96490000
C       -1.28240000      -0.69540000      -0.14550000
O       -2.37430000       0.06210000      -0.60050000
H       -0.56680000       1.37890000       1.41980000
H        0.56970000       0.28400000      -0.89290000
H        1.18990000      -1.53420000       0.72230000
H        1.49000000      -0.02960000       1.64190000
H       -2.43030000      -3.20730000       0.64490000
H       -1.56500000      -3.28280000       2.25830000
H       -2.75880000      -1.21370000       3.03130000
H       -3.62370000      -1.07700000       1.41840000
H       -1.11400000      -1.49030000      -0.88040000
H       -2.20880000       0.96220000      -0.28160000
