15
Properties=species:S:1:pos:R:3 gdb_127519=T pbc="F F F"
C       -0.02310000       1.40900000      -0.04590000
N        0.00380000      -0.04780000      -0.02130000
N       -0.02960000      -0.66570000      -1.22530000
C       -0.00690000      -1.96240000      -1.23530000
O       -0.03940000      -2.60400000      -2.42570000
C        0.05090000      -2.76290000      -0.05370000
C        0.08370000      -2.12950000       1.13950000
C        0.06090000      -0.67490000       1.22450000
O        0.08720000      -0.01690000       2.25590000
H        0.87140000       1.80880000       0.43910000
H       -0.06720000       1.72090000      -1.08760000
H       -0.89280000       1.77730000       0.50440000
H       -0.07690000      -1.92490000      -3.11300000
H        0.06670000      -3.84270000      -0.14830000
H        0.12790000      -2.66030000       2.08270000
