16
Properties=species:S:1:pos:R:3 gdb_44554=T pbc="F F F"
O        0.00590000      -0.01270000       0.25840000
C       -0.01290000       1.17970000       0.06960000
N       -1.14930000       1.97720000      -0.08850000
C       -0.82820000       3.37730000       0.02550000
C       -0.78120000       4.05510000       1.41720000
N       -0.00930000       3.15910000       2.29930000
C        0.71370000       4.07550000       1.39680000
C        0.74120000       3.39850000       0.00420000
N        1.09680000       2.00760000      -0.11900000
H       -2.00410000       1.59720000       0.28550000
H       -1.31310000       3.99590000      -0.73310000
H       -1.48080000       4.77700000       1.82090000
H       -0.00220000       3.57200000       3.23030000
H        1.40410000       4.81630000       1.78150000
H        1.18830000       4.02980000      -0.76710000
H        1.97150000       1.65110000       0.23150000
