19
Properties=species:S:1:pos:R:3 gdb_90163=T pbc="F F F"
O       -0.07030000       1.43280000      -0.12180000
C        0.00000000       0.03350000       0.03530000
C        0.27150000      -0.55800000       1.46520000
C       -1.08480000      -1.28040000       1.38350000
C       -2.20670000      -0.30470000       1.19800000
C       -1.36510000      -0.65460000       0.00350000
C       -1.82790000      -1.78810000      -0.87720000
O       -2.18860000      -2.84100000       0.03400000
C       -1.37630000      -2.75200000       1.21410000
H        0.81580000       1.79270000      -0.01060000
H        0.67560000      -0.41630000      -0.70610000
H        1.13070000      -1.23290000       1.49260000
H        0.36490000       0.17510000       2.27230000
H       -3.20680000      -0.72440000       1.19360000
H       -2.12540000       0.68920000       1.62510000
H       -2.71870000      -1.59210000      -1.48230000
H       -1.01320000      -2.10160000      -1.55040000
H       -0.43190000      -3.30900000       1.09710000
H       -1.95400000      -3.22080000       2.01730000
