16
Properties=species:S:1:pos:R:3 gdb_28356=T pbc="F F F"
C       -0.03540000       1.52220000      -0.00150000
C       -0.00050000       0.02290000      -0.02220000
C       -0.05670000      -0.73000000      -1.15870000
N       -0.03800000      -2.09580000      -1.22810000
C        0.06600000      -2.72370000      -0.08930000
N        0.16140000      -4.09500000      -0.06990000
N        0.13820000      -2.07500000       1.10550000
C        0.10800000      -0.66700000       1.24790000
O        0.17830000      -0.17300000       2.35960000
H        0.86640000       1.93080000       0.46740000
H       -0.11580000       1.92730000      -1.01380000
H       -0.88180000       1.88860000       0.58970000
H       -0.13240000      -0.23310000      -2.12390000
H       -0.07550000      -4.51160000      -0.95830000
H       -0.21890000      -4.57960000       0.72890000
H        0.26540000      -2.58160000       1.97180000
