18
Properties=species:S:1:pos:R:3 gdb_66606=T pbc="F F F"
C       -0.02380000       1.50320000       0.03650000
C        0.05330000       0.01690000       0.02540000
C        0.97170000      -1.00480000      -0.56590000
C        0.60870000      -1.03480000       0.93220000
C       -0.76310000      -1.76080000       0.94400000
C       -0.73500000      -3.18080000       0.45850000
C       -0.42020000      -3.15480000      -0.84090000
C       -0.23610000      -1.71730000      -1.23140000
N       -1.13040000      -0.92890000      -0.28030000
H        0.95240000       1.93510000       0.28080000
H       -0.33160000       1.88990000      -0.94120000
H       -0.74720000       1.85560000       0.77990000
H        1.99580000      -0.90380000      -0.90450000
H        1.36350000      -0.95600000       1.70530000
H       -1.38840000      -1.53680000       1.80940000
H       -0.86960000      -4.05330000       1.08530000
H       -0.24520000      -4.00180000      -1.49230000
H       -0.39830000      -1.45500000      -2.27780000
