18
Properties=species:S:1:pos:R:3 gdb_32242=T pbc="F F F"
C       -0.00180000       1.46830000      -0.00140000
N        0.09270000       0.02050000      -0.00380000
C        0.62480000      -0.68010000      -1.04290000
N        1.18580000       0.02300000      -2.03630000
C        1.72390000      -0.67800000      -3.03380000
N        1.76540000      -1.99840000      -3.16870000
C        1.19350000      -2.68160000      -2.16230000
C        0.60100000      -2.09950000      -1.05940000
C       -0.01870000      -2.90280000       0.04890000
H        0.97900000       1.91080000      -0.18810000
H       -0.68700000       1.84280000      -0.77210000
H       -0.35860000       1.79120000       0.97900000
H       -0.46010000      -0.48750000       0.66330000
H        2.17880000      -0.09310000      -3.83100000
H        1.21400000      -3.76760000      -2.24680000
H        0.45660000      -2.69640000       1.01660000
H       -1.09040000      -2.68990000       0.16240000
H        0.08070000      -3.97380000      -0.14650000
