14
Properties=species:S:1:pos:R:3 gdb_42230=T pbc="F F F"
O        0.19390000      -0.11720000      -0.08400000
C        0.00760000       1.07750000      -0.10310000
C        1.16220000       2.00360000      -0.01350000
N        2.05830000       2.73260000       0.04150000
C       -1.29690000       1.76360000      -0.16900000
C       -2.62050000       1.12460000      -0.57240000
C       -2.72880000      -0.30360000      -0.03250000
O       -2.42170000       0.16530000       1.31780000
C       -2.41380000       1.49350000       0.86210000
H       -1.24010000       2.81900000      -0.41860000
H       -3.23570000       1.57080000      -1.34170000
H       -3.75580000      -0.67870000      -0.06530000
H       -2.01760000      -1.04920000      -0.38400000
H       -2.78620000       2.27650000       1.51190000
