19
Properties=species:S:1:pos:R:3 gdb_47015=T pbc="F F F"
O        0.03940000      -0.06440000       0.16780000
C       -0.00060000       1.14930000       0.11490000
C       -1.34450000       1.89710000       0.09850000
C       -1.29350000       3.30020000       0.73580000
C       -0.18430000       4.08570000       0.04520000
C        0.65160000       5.22460000       0.71940000
C        1.95180000       4.53480000       0.17780000
C        1.10350000       3.30170000      -0.02800000
C        1.22510000       1.97610000       0.07060000
H       -1.64810000       1.98640000      -0.95470000
H       -2.08010000       1.24930000       0.58180000
H       -2.26720000       3.79570000       0.65890000
H       -1.06040000       3.20770000       1.80400000
H       -0.50730000       4.40570000      -0.95500000
H        0.45750000       6.24850000       0.39530000
H        0.59520000       5.17350000       1.80960000
H        2.27990000       4.98090000      -0.76760000
H        2.81620000       4.44950000       0.84060000
H        2.17550000       1.45930000       0.16380000
