17
Properties=species:S:1:pos:R:3 gdb_49199=T pbc="F F F"
O       -0.83940000       1.15340000      -0.15010000
C        0.27500000       0.87020000       0.22000000
C        1.41520000       1.81870000       0.13440000
N        2.61390000       1.46630000       0.43990000
C        3.46310000       2.63410000       0.15520000
C        4.24720000       2.52870000      -1.18100000
C        3.20550000       3.47210000      -1.86450000
C        2.51670000       3.71190000      -0.48670000
N        1.20380000       3.11920000      -0.26610000
H        0.54570000      -0.11940000       0.63370000
H        4.04640000       2.89790000       1.04120000
H        5.25290000       2.95270000      -1.12680000
H        4.31390000       1.51530000      -1.58180000
H        3.62170000       4.36610000      -2.33490000
H        2.55570000       2.97340000      -2.58830000
H        2.56440000       4.73710000      -0.11390000
H        0.39370000       3.33840000      -0.82570000
