23
Properties=species:S:1:pos:R:3 gdb_59468=T pbc="F F F"
C        0.78290000       0.90320000      -0.75500000
C        0.18980000      -0.07990000       0.26360000
C        0.05900000       0.55710000       1.65470000
C       -1.16280000      -0.57710000      -0.21150000
N       -1.19570000      -1.55690000      -1.31320000
C       -1.69150000      -1.95200000       0.01580000
C       -0.92190000      -3.04200000       0.70750000
C       -0.81010000      -4.37550000       0.06370000
N        0.36470000      -3.49290000       0.16330000
H        1.77600000       1.24190000      -0.44290000
H        0.87480000       0.43390000      -1.73890000
H        0.14790000       1.79170000      -0.86130000
H        0.86090000      -0.94130000       0.34280000
H       -0.61550000       1.42190000       1.63160000
H       -0.33630000      -0.15540000       2.38570000
H        1.03100000       0.90650000       2.01670000
H       -1.92070000       0.20790000      -0.24990000
H       -1.96220000      -1.37150000      -1.95230000
H       -2.77160000      -2.02760000       0.14300000
H       -0.95370000      -2.99740000       1.79490000
H       -0.76840000      -5.27570000       0.67040000
H       -1.27350000      -4.49970000      -0.91200000
H        0.48200000      -3.02940000      -0.73820000
