24
Properties=species:S:1:pos:R:3 gdb_116652=T pbc="F F F"
C        0.44040000       0.84090000      -0.46000000
O       -0.38970000       0.21420000       0.50780000
C       -1.19440000      -0.76590000       0.03580000
N       -1.95490000      -1.38250000       0.82250000
C       -2.84430000      -2.44380000       0.36130000
C       -2.79840000      -2.77880000      -1.13670000
C       -2.62840000      -3.67240000       1.28890000
C       -3.76250000      -4.69880000       1.17080000
C       -1.25720000      -4.33370000       1.09770000
H        1.01360000       1.60140000       0.07180000
H        1.13530000       0.12730000      -0.92030000
H       -0.15050000       1.32540000      -1.24760000
H       -1.10040000      -0.93070000      -1.04540000
H       -3.86000000      -2.08350000       0.58220000
H       -1.81280000      -3.13650000      -1.45210000
H       -3.52680000      -3.55860000      -1.37370000
H       -3.05140000      -1.90470000      -1.74560000
H       -2.65400000      -3.25760000       2.30370000
H       -3.75740000      -5.20700000       0.20010000
H       -3.66030000      -5.47220000       1.93910000
H       -4.74470000      -4.23050000       1.29960000
H       -1.08990000      -5.09860000       1.86300000
H       -1.17650000      -4.82830000       0.12300000
H       -0.45080000      -3.59920000       1.17670000
