19
Properties=species:S:1:pos:R:3 gdb_122794=T pbc="F F F"
C       -0.14940000       1.49340000      -0.17650000
C        0.17060000       0.00340000      -0.03430000
C        0.59070000      -0.62630000      -1.35420000
O        0.86720000      -1.99850000      -1.13240000
C        1.26130000      -2.67230000      -2.28400000
C        1.53700000      -4.12680000      -1.96630000
O        1.43320000      -4.63640000      -0.87920000
C        1.98360000      -4.99410000      -3.15050000
O        2.11490000      -4.57370000      -4.27030000
H        0.71880000       2.05700000      -0.53540000
H       -0.96900000       1.66120000      -0.88400000
H       -0.44830000       1.92230000       0.78400000
H        0.97570000      -0.14660000       0.69370000
H       -0.70100000      -0.53980000       0.34770000
H       -0.20900000      -0.51720000      -2.10690000
H        1.48410000      -0.11960000      -1.75780000
H        0.49680000      -2.63760000      -3.08190000
H        2.17400000      -2.24450000      -2.73810000
H        2.17210000      -6.04980000      -2.86220000
