19
Properties=species:S:1:pos:R:3 gdb_77692=T pbc="F F F"
C       -0.12590000       1.54110000      -0.00990000
C       -0.05590000       0.02030000      -0.03070000
O       -1.32810000      -0.57280000      -0.20430000
C        1.11460000      -0.53290000      -0.91990000
C        1.94600000      -0.64360000       0.35950000
C        3.27770000      -1.16300000       0.65040000
O        3.02350000       0.24970000       0.59860000
C        0.67710000      -0.57690000       1.21180000
O        0.78080000       0.15310000       2.40080000
H        0.85670000       1.97790000       0.18520000
H       -0.48180000       1.92010000      -0.97600000
H       -0.81060000       1.87980000       0.77260000
H       -1.76550000      -0.14070000      -0.94580000
H        0.86020000      -1.50480000      -1.35050000
H        1.51570000       0.12900000      -1.69030000
H        3.49840000      -1.55660000       1.64190000
H        3.89520000      -1.55590000      -0.15670000
H        0.28580000      -1.59190000       1.37640000
H       -0.02550000       0.01810000       2.90820000
