12
Properties=species:S:1:pos:R:3 gdb_35159=T pbc="F F F"
C       -0.09810000      -1.19110000      -0.03340000
C       -0.04180000       0.00720000       0.01630000
C        0.01320000       1.43760000       0.03930000
N        0.53930000       2.09370000       1.23650000
C        1.35380000       2.17630000       0.00850000
C        2.59560000       1.43450000       0.01920000
N        3.58500000       0.83990000       0.00290000
C        1.38230000       3.42210000      -0.72480000
N        1.37060000       4.43120000      -1.28830000
H       -0.13740000      -2.25270000      -0.06870000
H       -0.77250000       1.94880000      -0.51310000
H        0.07370000       2.98410000       1.40130000
