18
Properties=species:S:1:pos:R:3 gdb_40943=T pbc="F F F"
C        0.07190000       1.56940000      -0.03580000
O        1.35190000       1.53090000       0.62590000
C        1.45440000       0.10440000       0.43770000
C       -0.00980000       0.02270000      -0.02550000
C       -1.00830000      -0.59230000       0.94220000
C       -2.41230000      -0.50020000       0.33660000
N       -2.45820000      -0.95880000      -1.04860000
C       -1.37640000      -0.97030000      -1.69950000
O       -0.13110000      -0.57510000      -1.31680000
H       -0.68060000       2.11420000       0.54650000
H        0.13660000       1.99010000      -1.04700000
H        2.16560000      -0.16470000      -0.35320000
H        1.70990000      -0.42060000       1.36490000
H       -0.74220000      -1.64410000       1.10300000
H       -0.94880000      -0.08440000       1.90980000
H       -3.12230000      -1.09770000       0.91750000
H       -2.78410000       0.53350000       0.37540000
H       -1.34160000      -1.33300000      -2.72490000
