23
Properties=species:S:1:pos:R:3 gdb_122949=T pbc="F F F"
C       -0.17500000       1.50880000      -0.03880000
C       -0.04190000      -0.01480000      -0.07410000
C        0.83460000      -0.49290000      -1.23500000
O        2.16470000      -0.02860000      -1.10760000
O        0.60450000      -0.52970000       1.08940000
C       -0.16530000      -0.54400000       2.27410000
C        0.64060000      -1.25180000       3.35510000
C       -0.09770000      -1.32500000       4.68510000
O        0.74430000      -1.99860000       5.60730000
H        0.81690000       1.96700000      -0.03210000
H       -0.71120000       1.85920000      -0.92680000
H       -0.73070000       1.84990000       0.83880000
H       -1.03890000      -0.47670000      -0.17070000
H        0.79720000      -1.59240000      -1.27430000
H        0.44790000      -0.10510000      -2.18310000
H        2.43970000      -0.27580000      -0.21640000
H       -0.41570000       0.47910000       2.59620000
H       -1.11930000      -1.06910000       2.09530000
H        0.88350000      -2.26640000       3.02210000
H        1.59010000      -0.72590000       3.50210000
H       -0.34020000      -0.30820000       5.03620000
H       -1.05370000      -1.85900000       4.55480000
H        0.28730000      -2.04720000       6.45190000
