22
Properties=species:S:1:pos:R:3 gdb_118510=T pbc="F F F"
C       -0.09150000       1.42300000       0.09300000
O       -0.01480000       0.02180000      -0.02670000
C       -1.27490000      -0.60710000       0.07130000
C       -1.09410000      -2.12340000      -0.01440000
O       -0.47430000      -2.63990000       1.15140000
C        0.94180000      -2.66600000       1.13580000
C       -2.44300000      -2.81120000      -0.16620000
C       -2.60840000      -4.23680000       0.19360000
N       -3.21550000      -3.18210000       1.02930000
H        0.92310000       1.81670000      -0.00360000
H       -0.72110000       1.86400000      -0.69600000
H       -0.50170000       1.72750000       1.06840000
H       -1.76620000      -0.35550000       1.02510000
H       -1.93610000      -0.26710000      -0.74440000
H       -0.47380000      -2.34140000      -0.89880000
H        1.36530000      -1.65840000       1.08340000
H        1.25650000      -3.15020000       2.06400000
H        1.31980000      -3.25360000       0.28570000
H       -3.04990000      -2.40790000      -0.97480000
H       -3.31460000      -4.85460000      -0.35380000
H       -1.73900000      -4.75470000       0.58590000
H       -2.61300000      -3.04710000       1.83950000
