16
Properties=species:S:1:pos:R:3 gdb_8449=T pbc="F F F"
C        0.03230000       1.50450000       0.05360000
C       -0.01300000       0.00680000      -0.03450000
C        0.64130000      -0.81300000      -1.18030000
C        0.74130000      -1.82230000      -0.01520000
O        0.88660000      -0.69650000       0.90580000
C       -0.73870000      -2.16530000       0.22720000
O       -1.27170000      -3.22870000       0.36970000
C       -1.33840000      -0.73990000       0.23690000
H        1.05010000       1.87080000      -0.10630000
H       -0.62250000       1.94910000      -0.70280000
H       -0.30690000       1.84160000       1.03830000
H        0.04880000      -1.06630000      -2.06380000
H        1.62210000      -0.41990000      -1.45250000
H        1.49100000      -2.60500000       0.07430000
H       -1.75920000      -0.48670000       1.21340000
H       -2.11050000      -0.61740000      -0.52820000
