25
Properties=species:S:1:pos:R:3 gdb_106676=T pbc="F F F"
C        0.04570000       1.52510000      -0.31570000
C        0.02860000       0.04590000       0.09640000
C       -1.36070000      -0.52880000       0.16660000
C       -2.11080000      -1.01110000      -1.05070000
C       -1.86120000      -1.97990000       0.07830000
C       -1.11480000      -3.26950000      -0.12260000
C       -2.89720000      -1.70600000       1.19090000
C       -2.71020000      -2.49600000       2.48070000
C       -2.38340000      -0.22830000       1.27120000
H        1.06730000       1.91690000      -0.34760000
H       -0.40070000       1.65970000      -1.30630000
H       -0.52450000       2.13830000       0.39030000
H        0.62810000      -0.53680000      -0.61500000
H        0.52050000      -0.06420000       1.07270000
H       -3.11670000      -0.65250000      -1.26460000
H       -1.50250000      -1.17020000      -1.93730000
H       -0.28280000      -3.13750000      -0.82260000
H       -0.69960000      -3.65460000       0.81510000
H       -1.76810000      -4.04730000      -0.53810000
H       -3.93690000      -1.80430000       0.85230000
H       -1.68060000      -2.41840000       2.84890000
H       -3.37270000      -2.11530000       3.26570000
H       -2.93540000      -3.55910000       2.34100000
H       -1.91580000      -0.01870000       2.23880000
H       -3.11030000       0.56370000       1.05910000
