18
Properties=species:S:1:pos:R:3 gdb_105157=T pbc="F F F"
C        0.59060000       1.51080000       0.42820000
C       -0.12840000       0.20710000       0.06030000
C        0.38120000      -0.38390000      -1.23640000
N        1.72260000      -0.97310000      -1.23900000
C        0.58700000      -1.88380000      -1.42100000
C        0.27820000      -2.81730000      -0.37620000
C       -0.00920000      -3.61300000       0.47820000
C       -0.02640000       0.29730000      -2.50520000
O        0.57020000       0.16770000      -3.54880000
H        1.66660000       1.33760000       0.51890000
H        0.43760000       2.28730000      -0.32990000
H        0.22390000       1.90210000       1.38130000
H        0.00020000      -0.52980000       0.85690000
H       -1.20850000       0.38050000      -0.03470000
H        2.13370000      -0.79750000      -2.15780000
H        0.40870000      -2.24560000      -2.43140000
H       -0.25120000      -4.31850000       1.23440000
H       -0.93110000       0.93730000      -2.43240000
