18
Properties=species:S:1:pos:R:3 gdb_79233=T pbc="F F F"
C       -0.16070000       1.56390000       0.00530000
C        0.07220000       0.09250000       0.06320000
C        0.72470000      -0.91330000      -0.82530000
C        1.40370000      -1.61640000       0.33950000
O        2.68140000      -1.10630000       0.69140000
C        0.29400000      -1.00230000       1.23220000
O        0.55170000      -0.82650000       2.56770000
C       -0.97380000      -1.65880000       0.70550000
N       -0.76750000      -0.93500000      -0.60250000
H        0.71870000       2.12270000       0.34390000
H       -0.39020000       1.87240000      -1.01950000
H       -1.00340000       1.85270000       0.64290000
H        1.05780000      -0.82900000      -1.85290000
H        1.50090000      -2.70700000       0.33750000
H        2.72970000      -0.19270000       0.38490000
H        1.51610000      -0.77390000       2.64990000
H       -1.00360000      -2.75320000       0.64390000
H       -1.89380000      -1.28440000       1.16030000
