21
Properties=species:S:1:pos:R:3 gdb_39373=T pbc="F F F"
C        0.09100000       1.25780000      -0.39070000
C        1.40450000       0.61910000      -0.05080000
C        2.34320000       1.10350000       1.04350000
C        1.89720000       0.92130000       2.51140000
C        0.70380000       1.72280000       2.93860000
C       -0.56060000       1.27850000       2.92550000
C       -0.98390000      -0.03190000       2.44170000
C       -0.63290000      -0.65140000       1.30170000
C        0.09760000      -0.18280000       0.09540000
H       -0.29740000       1.99810000       0.29770000
H       -0.15650000       1.43960000      -1.43160000
H        1.96210000       0.28310000      -0.92190000
H        3.28920000       0.56020000       0.93050000
H        2.58140000       2.16010000       0.86530000
H        1.69630000      -0.14220000       2.67680000
H        2.75030000       1.19290000       3.14470000
H        0.89800000       2.72440000       3.31830000
H       -1.33790000       1.90660000       3.35950000
H       -1.67850000      -0.56550000       3.08990000
H       -1.03410000      -1.65560000       1.17320000
H       -0.00170000      -0.90730000      -0.70780000
