20
Properties=species:S:1:pos:R:3 gdb_109084=T pbc="F F F"
C        0.39260000       1.00170000       0.63460000
C       -0.36280000       0.37600000      -0.54920000
C        0.54840000      -0.30550000      -1.51840000
N        0.72580000       0.00680000      -2.73980000
C        1.70780000      -0.93550000      -3.28270000
C        3.15940000      -0.38380000      -3.35710000
C        3.51950000      -1.17410000      -2.05800000
C        2.11020000      -1.81510000      -2.05970000
O        1.24430000      -1.36760000      -1.00160000
H        0.95790000       0.24250000       1.18060000
H        1.09430000       1.76720000       0.28920000
H       -0.30910000       1.47380000       1.32770000
H       -1.07850000      -0.36500000      -0.17310000
H       -0.92300000       1.13290000      -1.10170000
H        1.32330000      -1.41130000      -4.18850000
H        3.70940000      -0.71780000      -4.24040000
H        3.22540000       0.70390000      -3.29190000
H        4.34510000      -1.88280000      -2.15590000
H        3.69630000      -0.55590000      -1.17500000
H        2.05520000      -2.90340000      -2.11110000
