19
Properties=species:S:1:pos:R:3 gdb_53413=T pbc="F F F"
C       -0.01270000       1.50890000       0.03310000
C       -0.03070000       0.05370000       0.03050000
C       -0.04080000      -1.14980000       0.03920000
C       -0.07240000      -2.60740000       0.00550000
O        0.64670000      -3.13120000       1.13230000
C        0.16490000      -4.44600000       1.39540000
C       -1.30220000      -4.43230000       1.00560000
C       -2.09290000      -3.23300000       1.46440000
C       -1.46250000      -3.23810000       0.09820000
H        0.49420000       1.89300000       0.92510000
H        0.51360000       1.90400000      -0.84280000
H       -1.02790000       1.92080000       0.02600000
H        0.40140000      -2.95420000      -0.92940000
H        0.70740000      -5.19680000       0.79760000
H        0.35220000      -4.64830000       2.45530000
H       -1.80140000      -5.37330000       0.80680000
H       -3.17100000      -3.33520000       1.51240000
H       -1.65960000      -2.58890000       2.22280000
H       -2.07490000      -3.25830000      -0.79450000
