15
Properties=species:S:1:pos:R:3 gdb_129816=T pbc="F F F"
N        0.08980000       1.40210000       0.08290000
C       -0.02360000       0.02440000       0.01770000
C       -1.17290000      -0.68170000       0.05310000
C       -1.15370000      -2.12340000       0.00360000
N       -2.20450000      -2.83940000       0.05220000
O        0.08920000      -2.72980000      -0.14540000
N        1.28940000      -2.02300000      -0.09400000
C        1.22330000      -0.73810000      -0.03290000
N        2.42120000      -0.01880000      -0.07610000
H        0.85180000       1.77970000      -0.46460000
H       -0.77360000       1.90840000      -0.05410000
H       -2.14860000      -0.21370000       0.09870000
H       -1.96340000      -3.82920000      -0.01270000
H        3.21940000      -0.64340000      -0.08220000
H        2.49940000       0.65750000       0.67560000
