20
Properties=species:S:1:pos:R:3 gdb_56651=T pbc="F F F"
C       -0.09760000       1.46860000      -0.17990000
C        0.09220000      -0.01410000       0.03270000
N        1.46410000      -0.55780000      -0.05710000
C        0.74390000      -0.62940000       1.22200000
C        1.30890000       0.20220000       2.35400000
C        0.16610000      -1.99300000       1.67500000
N       -0.12890000      -2.88040000       0.54380000
C        1.04450000      -2.65730000       2.66260000
N        1.72750000      -3.22530000       3.40300000
H        0.73440000       2.04860000       0.22370000
H       -0.16340000       1.68790000      -1.25090000
H       -1.02490000       1.81610000       0.28900000
H       -0.67730000      -0.63660000      -0.42050000
H        1.42510000      -1.45360000      -0.53810000
H        1.67070000       1.16170000       1.98430000
H        0.54880000       0.39210000       3.12110000
H        2.14900000      -0.30940000       2.83300000
H       -0.77950000      -1.78160000       2.18920000
H        0.68360000      -3.44740000       0.32200000
H       -0.86740000      -3.52940000       0.79290000
