17
Properties=species:S:1:pos:R:3 gdb_105559=T pbc="F F F"
C       -0.05720000       1.60090000      -0.04980000
C        0.20180000       0.09670000      -0.15310000
C        0.69610000      -0.52070000       1.16170000
N       -0.31570000      -0.55020000       2.26390000
C       -0.16720000      -2.01220000       2.49780000
C        0.67600000      -2.09150000       1.22360000
O        1.09710000      -2.94750000       0.51630000
C        1.99470000       0.01170000       1.57670000
N        3.00970000       0.43200000       1.94020000
H        0.85980000       2.14800000       0.19010000
H       -0.44280000       1.98760000      -0.99700000
H       -0.79750000       1.81170000       0.72770000
H       -0.72050000      -0.42710000      -0.42480000
H        0.94240000      -0.12320000      -0.92980000
H       -0.07420000       0.02750000       3.06050000
H        0.41510000      -2.29660000       3.38470000
H       -1.10680000      -2.57340000       2.49490000
