13
Properties=species:S:1:pos:R:3 gdb_4446=T pbc="F F F"
N        0.17070000       1.45140000       0.07840000
C        0.02400000       0.06880000      -0.00550000
C       -1.06760000      -0.71210000      -0.00500000
N       -2.41310000      -0.37230000      -0.00020000
O       -0.65350000      -2.06370000       0.01710000
C        0.71640000      -2.10130000       0.02250000
O        1.38290000      -3.10040000       0.05960000
N        1.13130000      -0.78080000      -0.02620000
H        0.70110000       1.83650000      -0.69760000
H       -0.74340000       1.88960000       0.10260000
H       -2.89630000      -0.67660000       0.84030000
H       -2.91660000      -0.74240000      -0.80110000
H        2.08330000      -0.51440000       0.15750000
