13
Properties=species:S:1:pos:R:3 gdb_20655=T pbc="F F F"
C       -0.02430000       1.51710000      -0.01400000
C       -0.05480000       0.02260000       0.00330000
C       -1.15790000      -0.74050000      -0.14720000
C       -1.03600000      -2.16820000      -0.10830000
N        0.06770000      -2.81310000       0.06230000
O        1.20980000      -2.04620000       0.21800000
C        1.23110000      -0.65760000       0.20230000
O        2.29210000      -0.11150000       0.35120000
H        0.64240000       1.87460000      -0.80560000
H       -1.02190000       1.93420000      -0.16640000
H        0.38880000       1.90000000       0.92500000
H       -2.13720000      -0.29670000      -0.29740000
H       -1.90520000      -2.80800000      -0.22580000
