16
Properties=species:S:1:pos:R:3 gdb_98396=T pbc="F F F"
O        0.15430000       1.20750000      -0.34530000
C        0.08450000      -0.18450000      -0.23500000
C       -1.36350000      -0.61450000      -0.05350000
O       -2.23550000       0.23340000      -0.02630000
N       -1.70200000      -1.97990000       0.08320000
C       -3.07820000      -2.27330000       0.24800000
N       -3.49220000      -3.46280000       0.37940000
C       -0.80560000      -3.06480000       0.07100000
N        0.44640000      -2.93150000      -0.06970000
H       -0.75790000       1.52620000      -0.27440000
H        0.49790000      -0.68570000      -1.12000000
H        0.67690000      -0.55760000       0.61070000
H       -3.67570000      -1.36450000       0.24310000
H       -4.50450000      -3.47280000       0.48580000
H       -1.35090000      -3.99960000       0.19800000
H        0.89480000      -3.84560000      -0.04790000
