17
Properties=species:S:1:pos:R:3 gdb_66476=T pbc="F F F"
C        0.05030000       1.44470000      -0.03900000
C        0.03710000      -0.05070000       0.04560000
O        1.05790000      -0.72110000      -0.75130000
C        0.84230000      -1.85570000       0.11440000
C        0.33240000      -0.96400000       1.29080000
C       -1.08560000      -1.60600000       1.22820000
C       -1.26580000      -0.88640000      -0.10250000
C       -0.64700000      -2.28800000      -0.03730000
O       -1.18230000      -3.41350000      -0.61450000
H        1.03780000       1.83810000       0.21820000
H       -0.19710000       1.77220000      -1.05480000
H       -0.68880000       1.87050000       0.64650000
H        1.65090000      -2.58500000       0.13030000
H        0.91310000      -0.68000000       2.16510000
H       -1.80550000      -1.88350000       1.98340000
H       -2.17590000      -0.68180000      -0.65170000
H       -1.15330000      -3.30680000      -1.57250000
