15
Properties=species:S:1:pos:R:3 gdb_13228=T pbc="F F F"
C       -1.55310000      -0.25760000      -0.75470000
C       -0.62910000       0.36370000      -0.30390000
C        0.50230000       1.10550000       0.24920000
N        0.70030000       2.38060000      -0.45100000
C        1.77090000       2.54950000      -1.07580000
C        2.35770000       3.67100000      -1.90550000
C        3.55240000       2.70710000      -2.05610000
O        2.86570000       1.71390000      -1.23390000
H       -2.37170000      -0.80440000      -1.15210000
H        0.29410000       1.33550000       1.30200000
H        1.39690000       0.46860000       0.23050000
H        1.80570000       3.89880000      -2.81850000
H        2.55120000       4.59370000      -1.35640000
H        3.73890000       2.31860000      -3.05990000
H        4.48970000       3.01820000      -1.58910000
