17
Properties=species:S:1:pos:R:3 gdb_61043=T pbc="F F F"
O        0.18860000       1.54220000       0.01620000
C        0.04270000       0.14990000       0.03160000
C        0.61370000      -0.46080000      -1.23890000
O        1.11080000       0.23710000      -2.09120000
C        0.71820000      -0.46320000       1.26580000
C        0.15280000      -0.13110000       2.68360000
C        0.18070000      -1.64440000       3.06140000
C        0.43550000      -1.94500000       1.57890000
O        0.32520000      -2.91790000       0.88720000
H        0.62590000       1.74420000      -0.82780000
H       -1.02830000      -0.12380000       0.05790000
H        0.55500000      -1.56070000      -1.32560000
H        1.79870000      -0.28090000       1.21670000
H        0.76550000       0.53220000       3.29270000
H       -0.86160000       0.27020000       2.63440000
H        1.03810000      -1.92420000       3.68220000
H       -0.71860000      -2.09150000       3.49160000
