14
Properties=species:S:1:pos:R:3 gdb_16259=T pbc="F F F"
O       -0.03730000       0.03250000      -0.06850000
C       -0.01870000       1.22050000       0.05350000
C       -1.13450000       2.29200000       0.17520000
C       -0.05080000       3.35840000      -0.02370000
C        0.94700000       3.25860000       1.06470000
C        1.07210000       2.26130000      -0.10000000
C        2.24190000       2.16510000      -0.89830000
C        3.22450000       2.06260000      -1.58510000
H       -1.82840000       2.19170000      -0.66410000
H       -1.70270000       2.33500000       1.10900000
H       -0.12380000       4.21220000      -0.68310000
H        1.74450000       3.99330000       1.07330000
H        0.65610000       2.89530000       2.04670000
H        4.09010000       1.96710000      -2.19250000
