12
Properties=species:S:1:pos:R:3 gdb_130561=T pbc="F F F"
O        0.08890000      -0.08110000       0.00250000
C       -0.03800000       1.12230000       0.00730000
C        1.15120000       2.01010000       0.00140000
N        2.05240000       2.73460000      -0.00300000
C       -1.30820000       1.83010000       0.01880000
C       -2.60960000       1.34150000       0.02680000
C       -3.41500000       2.48620000       0.03620000
N       -2.68180000       3.60920000       0.03440000
N       -1.42010000       3.19270000       0.02400000
H       -2.89880000       0.30400000       0.02570000
H       -4.49210000       2.55500000       0.04420000
H       -0.67060000       3.86900000       0.02070000
