19
Properties=species:S:1:pos:R:3 gdb_4131=T pbc="F F F"
C        0.12910000       1.50880000      -0.48980000
C       -0.01550000       0.08240000      -0.00450000
C        1.14880000      -0.87660000      -0.05660000
C        0.56240000      -0.45440000       1.28280000
C        1.38250000       0.29830000       2.27170000
C        2.32430000      -0.48880000       3.14880000
N        1.23960000       1.56670000       2.35410000
O        2.09020000       2.11550000       3.33240000
H        1.12460000       1.90650000      -0.28780000
H       -0.04630000       1.55270000      -1.57110000
H       -0.59100000       2.17100000      -0.00020000
H       -0.97770000      -0.36000000      -0.25340000
H        0.99680000      -1.89660000      -0.39270000
H        2.11340000      -0.45530000      -0.32260000
H       -0.03390000      -1.22880000       1.76370000
H        3.36160000      -0.19580000       2.95430000
H        2.13470000      -0.27270000       4.20450000
H        2.22360000      -1.56090000       2.97120000
H        1.86430000       3.05030000       3.29050000
