18
Properties=species:S:1:pos:R:3 gdb_24733=T pbc="F F F"
C       -0.01900000       1.52610000      -0.03930000
C        1.41140000       2.05620000       0.02730000
O        2.03550000       1.68660000       1.25540000
C        1.92800000       0.37040000       1.57190000
C        2.67950000      -0.36390000       2.45550000
C        2.11200000      -1.67350000       2.47200000
C        1.05030000      -1.68830000       1.60470000
N        0.92930000      -0.42280000       1.05600000
C        0.00240000      -0.00380000       0.02030000
H       -0.58660000       1.93110000       0.80530000
H       -0.50370000       1.85770000      -0.96230000
H        2.00180000       1.67320000      -0.81950000
H        1.43830000       3.14760000       0.00060000
H        3.51570000       0.00510000       3.02640000
H        2.45370000      -2.50930000       3.06330000
H        0.37310000      -2.47440000       1.31220000
H       -0.99200000      -0.40410000       0.24180000
H        0.31260000      -0.41310000      -0.95130000
