15
Properties=species:S:1:pos:R:3 gdb_16875=T pbc="F F F"
O       -0.09030000      -0.05490000      -0.34900000
C       -0.03850000       1.06200000       0.08280000
C       -1.20180000       2.05210000       0.01860000
N       -1.31730000       3.01770000       1.11150000
C       -0.94050000       2.55050000       2.45330000
C       -0.03770000       3.43860000       1.67570000
C        1.21120000       2.88430000       1.03220000
O        1.09610000       1.49720000       0.69280000
H       -1.11410000       2.61430000      -0.92030000
H       -2.11740000       1.46030000      -0.04970000
H       -1.53780000       2.95990000       3.26200000
H       -0.64560000       1.51240000       2.58440000
H        0.03190000       4.49460000       1.93180000
H        1.45060000       3.45860000       0.12640000
H        2.07080000       2.95180000       1.70450000
