19
Properties=species:S:1:pos:R:3 gdb_18727=T pbc="F F F"
C        0.06420000       1.40410000      -0.07810000
N       -0.06070000      -0.02830000       0.09330000
C       -1.41900000      -0.54250000       0.00670000
C       -1.35670000      -2.06510000      -0.03800000
O       -0.79950000      -2.61710000       1.14760000
C        0.27230000      -1.91940000       1.70700000
C        1.60480000      -1.70210000       1.02980000
C        0.64250000      -0.53710000       1.24660000
H        1.12280000       1.67990000      -0.11770000
H       -0.39910000       1.70430000      -1.02380000
H       -0.40940000       1.99060000       0.73250000
H       -2.06180000      -0.22010000       0.84830000
H       -1.87660000      -0.17760000      -0.91990000
H       -2.35840000      -2.49650000      -0.12420000
H       -0.77050000      -2.36920000      -0.91840000
H        0.30020000      -2.11140000       2.77490000
H        2.50000000      -1.78610000       1.63740000
H        1.71440000      -2.01370000      -0.00260000
H        0.87790000       0.19990000       2.01480000
