21
Properties=species:S:1:pos:R:3 gdb_53190=T pbc="F F F"
C       -0.06300000       1.55590000       0.03980000
C       -0.07500000       0.09980000       0.05330000
C       -0.08760000      -1.10620000       0.06710000
C       -0.04700000      -2.54060000       0.04380000
C       -0.41300000      -3.43380000       1.22630000
C       -1.20990000      -2.84190000       2.37860000
C       -2.44740000      -2.16710000       1.73250000
C       -2.63610000      -2.84880000       0.35270000
C       -1.28060000      -3.43820000      -0.00600000
H        0.96140000       1.94530000       0.03100000
H       -0.57480000       1.95530000      -0.84330000
H       -0.56230000       1.96770000       0.92420000
H        0.78350000      -2.93240000      -0.53940000
H        0.26840000      -4.25070000       1.43900000
H       -1.51380000      -3.65830000       3.04410000
H       -0.62850000      -2.13560000       2.98040000
H       -3.33800000      -2.26210000       2.35980000
H       -2.25960000      -1.10150000       1.59620000
H       -3.36270000      -3.66710000       0.41780000
H       -3.00850000      -2.14690000      -0.40080000
H       -1.24840000      -4.25840000      -0.71530000
