20
Properties=species:S:1:pos:R:3 gdb_121057=T pbc="F F F"
C       -0.81150000       1.38320000       0.27780000
O       -0.69940000       0.00530000       0.55030000
C       -0.60980000      -0.78280000      -0.61280000
C       -0.47940000      -2.24030000      -0.17430000
C       -1.74290000      -2.80880000       0.49340000
C       -2.49640000      -3.42910000      -0.69170000
C       -1.39280000      -3.75420000      -1.67570000
N       -1.47940000      -4.54360000      -2.65620000
O       -0.26290000      -3.05340000      -1.34280000
H       -0.87300000       1.90170000       1.23740000
H        0.06180000       1.76030000      -0.27650000
H       -1.71510000       1.61020000      -0.30930000
H       -1.50320000      -0.65370000      -1.24850000
H        0.26670000      -0.50460000      -1.21940000
H        0.40570000      -2.33540000       0.46040000
H       -1.46710000      -3.57930000       1.21850000
H       -2.29630000      -2.03040000       1.02050000
H       -3.07170000      -4.32160000      -0.44520000
H       -3.18650000      -2.71590000      -1.15550000
H       -0.59660000      -4.57410000      -3.16960000
