14
Properties=species:S:1:pos:R:3 gdb_16719=T pbc="F F F"
N        0.05370000      -1.12620000       0.11740000
C       -0.01230000       0.03010000       0.07350000
C       -0.03800000       1.44610000       0.00970000
C       -1.12640000       2.23070000       0.01640000
C       -0.72410000       3.65710000       0.02380000
C        0.07580000       4.07540000       1.21620000
N        0.76000000       3.69970000      -0.01960000
C        1.22590000       2.29980000      -0.06490000
H       -2.15280000       1.88810000       0.03020000
H       -1.27680000       4.38620000      -0.56100000
H        0.15460000       5.12920000       1.46800000
H        0.09790000       3.39090000       2.06160000
H        1.92220000       2.09530000       0.75580000
H        1.76480000       2.12290000      -1.00300000
