18
Properties=species:S:1:pos:R:3 gdb_47098=T pbc="F F F"
O       -0.11340000       0.09470000       0.16590000
C       -0.06490000       1.29650000       0.12970000
C       -1.25370000       2.25510000       0.31480000
N       -0.79200000       3.59860000      -0.04080000
C        0.67990000       3.60390000       0.04930000
C        1.21270000       4.02710000       1.43440000
O        2.42610000       3.31830000       1.59950000
C        2.21970000       2.00460000       1.09510000
C        1.19440000       2.14690000      -0.06120000
H       -2.11460000       1.93780000      -0.27920000
H       -1.56170000       2.20220000       1.36910000
H       -1.06840000       3.80850000      -0.99160000
H        1.09090000       4.25680000      -0.72280000
H        1.42750000       5.09470000       1.51560000
H        0.47620000       3.76220000       2.21200000
H        3.18560000       1.61540000       0.76630000
H        1.83270000       1.33770000       1.88050000
H        1.64370000       1.91090000      -1.02860000
