19
Properties=species:S:1:pos:R:3 gdb_30092=T pbc="F F F"
C       -0.09810000       1.55580000      -0.16540000
C        0.02450000       0.05620000      -0.02050000
C        1.34740000      -0.64360000      -0.16390000
C        0.67770000      -0.59940000       1.19520000
C        1.25400000       0.14970000       2.31890000
C        1.07350000       0.05590000       3.66720000
C        1.92010000       1.04460000       4.26740000
C        2.55360000       1.66800000       3.24340000
O        2.16330000       1.13460000       2.05030000
H        0.78340000       2.06910000       0.22480000
H       -0.21190000       1.83210000      -1.21960000
H       -0.97280000       1.93520000       0.37440000
H       -0.83390000      -0.49620000      -0.39560000
H        1.39460000      -1.59640000      -0.67980000
H        2.22770000      -0.02130000      -0.28480000
H        0.20340000      -1.51700000       1.52790000
H        0.41700000      -0.63570000       4.17180000
H        2.03810000       1.25580000       5.31870000
H        3.27570000       2.46500000       3.18300000
