15
Properties=species:S:1:pos:R:3 gdb_132751=T pbc="F F F"
C       -0.02690000       1.51120000      -0.03310000
C       -0.00470000       0.00760000       0.00260000
C        0.06720000      -0.74250000      -1.16060000
F        0.11960000      -0.13870000      -2.36410000
C        0.08830000      -2.13320000      -1.13990000
O        0.15860000      -2.87310000      -2.27450000
C        0.03370000      -2.74720000       0.11140000
N       -0.03600000      -2.06290000       1.25180000
C       -0.05410000      -0.73050000       1.18920000
H        0.87220000       1.91260000      -0.51230000
H       -0.88550000       1.88450000      -0.60110000
H       -0.08460000       1.91740000       0.97920000
H        0.18780000      -2.26940000      -3.02690000
H        0.04810000      -3.83240000       0.16670000
H       -0.11140000      -0.20220000       2.13810000
