15
Properties=species:S:1:pos:R:3 gdb_28485=T pbc="F F F"
C       -0.01110000       1.50730000      -0.08510000
C        0.03360000       0.00890000      -0.03320000
N        0.01690000      -0.68640000      -1.17080000
C        0.05720000      -2.01400000      -1.10310000
O        0.04010000      -2.71480000      -2.25940000
C        0.11570000      -2.68750000       0.11480000
N        0.13290000      -2.00470000       1.26070000
C        0.09270000      -0.68480000       1.18870000
O        0.10940000       0.02780000       2.34110000
H        0.87070000       1.94210000       0.39800000
H       -0.05440000       1.83970000      -1.12310000
H       -0.88300000       1.89190000       0.45510000
H       -0.00150000      -2.06160000      -2.97060000
H        0.14820000      -3.77070000       0.15950000
H        0.15100000      -0.61920000       3.05830000
