15
Properties=species:S:1:pos:R:3 gdb_2264=T pbc="F F F"
C       -0.10700000       1.51070000       0.05560000
C        0.17220000       0.04690000      -0.02490000
O       -0.76140000      -0.86490000       0.59200000
C        0.63240000      -0.95930000       0.94970000
C        1.30020000      -1.81540000      -0.12550000
C        0.77110000      -0.77590000      -1.19080000
O       -0.13890000      -1.21480000      -2.15900000
H        0.79060000       2.08980000      -0.18400000
H       -0.88840000       1.79200000      -0.65900000
H       -0.44500000       1.78380000       1.05880000
H        0.87370000      -0.85250000       2.00110000
H        2.39110000      -1.83680000      -0.06220000
H        0.91490000      -2.83320000      -0.22440000
H        1.58340000      -0.26570000      -1.71480000
H       -0.90190000      -1.54610000      -1.66690000
