18
Properties=species:S:1:pos:R:3 gdb_64052=T pbc="F F F"
C        0.15850000       1.53610000      -0.09430000
C        0.02680000       0.02310000       0.01650000
C       -1.44190000      -0.43130000       0.05810000
O        0.63310000      -0.52650000      -1.18590000
C        1.13480000      -1.78030000      -1.14030000
N        1.40850000      -2.50680000      -0.14350000
C        1.23340000      -1.94780000       1.18620000
C        0.72980000      -0.51510000       1.27100000
O        0.82180000       0.14580000       2.27720000
H        1.20950000       1.82310000      -0.17830000
H       -0.37400000       1.89280000      -0.97970000
H       -0.25640000       2.01040000       0.79610000
H       -1.95160000      -0.09370000      -0.84840000
H       -1.51870000      -1.52130000       0.11080000
H       -1.94510000      -0.00390000       0.92950000
H        1.31690000      -2.14160000      -2.15110000
H        0.53700000      -2.58010000       1.75640000
H        2.18190000      -2.00170000       1.73300000
