17
Properties=species:S:1:pos:R:3 gdb_71814=T pbc="F F F"
C       -0.02670000       1.47760000      -0.07340000
C       -0.05050000      -0.01330000      -0.01110000
O        0.74090000      -0.71810000      -0.96950000
C       -0.09470000      -1.89330000      -0.78390000
C        0.60240000      -2.81940000       0.24060000
O        1.78120000      -2.25750000       0.82420000
C        0.53610000      -2.10040000       1.51720000
C       -0.26690000      -0.84000000       1.26910000
C       -1.12850000      -1.04730000       0.02560000
H        0.97590000       1.85230000       0.15860000
H       -0.29880000       1.82330000      -1.07540000
H       -0.72800000       1.90620000       0.64790000
H       -0.38050000      -2.35160000      -1.73060000
H        0.58640000      -3.90010000       0.12750000
H        0.48020000      -2.58490000       2.48930000
H       -0.68200000      -0.30000000       2.11250000
H       -2.20660000      -1.00270000      -0.05780000
