20
Properties=species:S:1:pos:R:3 gdb_120426=T pbc="F F F"
C        0.01770000       1.62360000      -0.04470000
C        0.00680000       0.09450000       0.03240000
C       -1.40810000      -0.49260000      -0.01480000
C       -1.44150000      -2.03150000       0.02410000
N       -0.95250000      -2.59880000       1.26590000
C       -1.85170000      -3.45270000       1.87580000
O       -1.65910000      -4.10400000       2.88030000
C       -3.07760000      -3.38200000       1.02260000
C       -2.84240000      -2.59540000      -0.02750000
H        1.03830000       2.01600000      -0.00650000
H       -0.44110000       1.97700000      -0.97470000
H       -0.54060000       2.06500000       0.78790000
H        0.59970000      -0.32020000      -0.79400000
H        0.50220000      -0.22330000       0.95860000
H       -2.00150000      -0.11110000       0.82470000
H       -1.90780000      -0.16360000      -0.93580000
H       -0.85980000      -2.41110000      -0.83290000
H        0.01080000      -2.57420000       1.55400000
H       -3.98020000      -3.92180000       1.27060000
H       -3.52610000      -2.34030000      -0.82750000
