18
Properties=species:S:1:pos:R:3 gdb_105446=T pbc="F F F"
C       -0.02860000       1.47590000       0.01430000
C        0.06900000      -0.04630000      -0.12020000
C        0.85720000      -0.52380000      -1.33910000
C        0.71310000      -2.06610000      -1.60080000
N       -0.08070000      -2.17190000      -2.83100000
C       -0.22410000      -0.98940000      -3.25570000
O        0.30430000       0.04930000      -2.55890000
C        2.32830000      -0.14020000      -1.29190000
O        2.95640000       0.00520000      -0.27640000
H        0.95920000       1.92520000       0.14910000
H       -0.49040000       1.91840000      -0.87230000
H       -0.63730000       1.74200000       0.88300000
H        0.56080000      -0.47220000       0.76120000
H       -0.93340000      -0.48660000      -0.17570000
H        1.67740000      -2.56780000      -1.74320000
H        0.20880000      -2.55970000      -0.76460000
H       -0.74700000      -0.70140000      -4.16070000
H        2.79380000      -0.04300000      -2.29800000
