12
Properties=species:S:1:pos:R:3 gdb_28999=T pbc="F F F"
O        0.11210000       1.33630000       0.06250000
C        0.07620000       0.00190000       0.02320000
N        0.09060000      -0.60490000      -1.15450000
C        0.05350000      -1.93880000      -1.14620000
C        0.00190000      -2.66600000       0.04010000
N       -0.01280000      -2.05940000       1.22610000
C        0.02390000      -0.72710000       1.23320000
C        0.00930000      -0.04660000       2.49560000
N       -0.00190000       0.51700000       3.50550000
H        0.14500000       1.64770000      -0.85400000
H        0.06530000      -2.43610000      -2.11180000
H       -0.02810000      -3.75050000       0.03710000
