11
Properties=species:S:1:pos:R:3 gdb_131185=T pbc="F F F"
O        0.21970000       1.34730000      -0.06750000
C        0.08960000       0.01280000      -0.06550000
C       -0.14000000      -0.82850000      -1.11440000
O       -0.36250000      -0.57780000      -2.41420000
C        0.21190000      -1.41730000      -3.35950000
O       -0.01650000      -1.27310000      -4.51190000
O       -0.19840000      -2.07890000      -0.64740000
N        0.01660000      -1.99310000       0.75990000
N        0.17130000      -0.76740000       1.04720000
H        0.35150000       1.63360000       0.84480000
H        0.86240000      -2.17700000      -2.90180000
