19
Properties=species:S:1:pos:R:3 gdb_127150=T pbc="F F F"
C        0.37050000       1.29000000      -0.09140000
N       -0.06960000      -0.09870000       0.00240000
C        0.54640000      -0.77150000       1.13830000
C       -1.52720000      -0.20680000       0.02380000
C       -2.10710000       0.02860000      -1.33670000
N       -3.30180000       0.50890000      -1.63800000
C       -3.31390000       0.45410000      -3.00020000
N       -2.21150000      -0.01780000      -3.55880000
N       -1.45160000      -0.29040000      -2.47090000
H        1.45800000       1.32370000      -0.20610000
H       -0.08060000       1.76930000      -0.96410000
H        0.10000000       1.88240000       0.80190000
H        0.26900000      -0.32440000       2.11080000
H        0.25450000      -1.82590000       1.15220000
H        1.63530000      -0.72020000       1.04490000
H       -1.78740000      -1.22260000       0.34610000
H       -2.01150000       0.48260000       0.73630000
H       -4.15590000       0.77620000      -3.59460000
H       -0.51380000      -0.64810000      -2.55450000
