19
Properties=species:S:1:pos:R:3 gdb_95871=T pbc="F F F"
O       -0.07710000       1.47570000       0.10570000
C        0.03990000       0.06140000       0.04470000
C        0.72390000      -0.48930000       1.30410000
O        0.75280000      -1.90540000       1.30950000
C       -0.54310000      -2.46590000       1.29310000
C       -1.34060000      -2.05820000       0.03250000
C       -1.37020000      -0.51290000      -0.06290000
C       -0.79250000      -2.67320000      -1.17490000
C       -0.34970000      -3.18100000      -2.17060000
H        0.80550000       1.85320000       0.03600000
H        0.62100000      -0.25150000      -0.83510000
H        1.76690000      -0.15930000       1.36070000
H        0.19270000      -0.10050000       2.18980000
H       -0.41290000      -3.54960000       1.33510000
H       -1.11200000      -2.14450000       2.18240000
H       -2.36990000      -2.41730000       0.16400000
H       -1.96770000      -0.11600000       0.76700000
H       -1.84160000      -0.18850000      -0.99400000
H        0.04250000      -3.63360000      -3.04740000
