25
Properties=species:S:1:pos:R:3 gdb_105509=T pbc="F F F"
C        0.06170000       1.60360000      -0.03110000
C        0.06120000       0.07970000       0.17230000
C        0.72920000      -0.29490000       1.50540000
C       -1.33330000      -0.55960000      -0.01190000
C       -2.33700000      -0.06910000       1.03030000
O       -3.59460000      -0.69790000       0.79930000
C       -1.90180000      -0.48060000      -1.47000000
C       -2.14410000      -2.01300000      -1.45540000
C       -1.32500000      -2.12120000      -0.14230000
H        1.08740000       1.98560000      -0.06610000
H       -0.43040000       1.88530000      -0.96740000
H       -0.44930000       2.12480000       0.78580000
H        0.68120000      -0.34960000      -0.62760000
H        0.23390000       0.18140000       2.35840000
H        0.71650000      -1.37670000       1.67240000
H        1.77460000       0.03110000       1.51560000
H       -1.97210000      -0.30810000       2.04090000
H       -2.44050000       1.02460000       0.96240000
H       -4.21320000      -0.37990000       1.46240000
H       -2.78630000       0.14510000      -1.60850000
H       -1.13930000      -0.17290000      -2.19200000
H       -3.19530000      -2.26200000      -1.30640000
H       -1.76370000      -2.57330000      -2.31300000
H       -0.31590000      -2.51510000      -0.29640000
H       -1.79490000      -2.67480000       0.67370000
