18
Properties=species:S:1:pos:R:3 gdb_124696=T pbc="F F F"
C        0.05860000       1.57520000       0.06430000
C       -0.01510000       0.04360000       0.04540000
C        0.75970000      -0.57030000       1.22170000
O        2.11500000      -0.16410000       1.11270000
C       -1.42980000      -0.46360000       0.04840000
N       -1.72430000      -1.72240000      -0.30000000
N       -3.03990000      -1.78630000      -0.14880000
N       -3.64680000      -0.68440000       0.26410000
C       -2.63560000       0.17570000       0.39930000
H        1.10160000       1.89550000       0.05310000
H       -0.45170000       2.00740000      -0.80140000
H       -0.40550000       1.98160000       0.97040000
H        0.47050000      -0.32160000      -0.86750000
H        0.31200000      -0.22810000       2.16970000
H        0.66280000      -1.66450000       1.18180000
H        2.60180000      -0.53630000       1.85330000
H       -3.55430000      -2.62760000      -0.35350000
H       -2.81470000       1.18680000       0.72600000
