18
Properties=species:S:1:pos:R:3 gdb_30689=T pbc="F F F"
C        0.00490000       1.57100000      -0.02310000
C       -0.03710000       0.05340000       0.16230000
C       -1.45070000      -0.52690000      -0.03420000
O       -1.97910000      -0.19410000      -1.31200000
C       -1.46220000      -2.01690000       0.14990000
C       -1.87050000      -2.80460000       1.17130000
O       -1.64810000      -4.11150000       0.82160000
C       -1.11610000      -4.03790000      -0.41530000
N       -0.97680000      -2.83720000      -0.87040000
H        1.02640000       1.95130000       0.07070000
H       -0.37880000       1.84510000      -1.00870000
H       -0.61100000       2.07880000       0.72800000
H        0.63500000      -0.43810000      -0.55250000
H        0.31680000      -0.22300000       1.16350000
H       -2.12670000      -0.06920000       0.69870000
H       -1.59100000      -0.82090000      -1.93590000
H       -2.30870000      -2.63410000       2.13910000
H       -0.86620000      -4.97150000      -0.89460000
