18
Properties=species:S:1:pos:R:3 gdb_66554=T pbc="F F F"
C       -0.08870000       1.47200000      -0.06800000
C        0.06440000      -0.01110000       0.05110000
C        0.94320000      -0.85490000      -0.80540000
C        1.13260000      -2.18850000      -0.03160000
C        1.79590000      -2.03190000       1.31550000
C        1.00670000      -1.27840000       2.09330000
C       -0.22130000      -0.89700000       1.30390000
C       -0.38650000      -2.00090000       0.22920000
N       -0.54970000      -0.97900000      -0.91890000
H        0.66760000       1.99090000       0.53230000
H        0.02420000       1.79110000      -1.10860000
H       -1.07710000       1.79450000       0.27660000
H        1.54680000      -0.45680000      -1.61320000
H        1.43310000      -3.02780000      -0.65770000
H        2.77760000      -2.41380000       1.56790000
H        1.22730000      -0.93530000       3.09690000
H       -1.11230000      -0.59670000       1.85570000
H       -1.08170000      -2.83360000       0.33000000
