17
Properties=species:S:1:pos:R:3 gdb_65311=T pbc="F F F"
C       -0.02540000       1.58250000       0.01080000
C       -0.05560000       0.07830000       0.06240000
O        1.19200000      -0.62830000      -0.17570000
C        0.65060000      -0.68430000       1.11370000
C        1.34140000      -0.20410000       2.38770000
O        0.93330000      -1.41120000       3.06770000
C        0.32330000      -1.96460000       1.88200000
C       -1.22060000      -0.60580000      -0.58840000
O       -2.23060000      -0.04190000      -0.92240000
H        0.84060000       1.97540000       0.54740000
H        0.02000000       1.92660000      -1.02630000
H       -0.93920000       1.98730000       0.45380000
H        2.43140000      -0.11570000       2.30060000
H        0.93410000       0.69700000       2.86110000
H       -0.73560000      -2.20270000       2.03500000
H        0.85130000      -2.85200000       1.51080000
H       -1.06560000      -1.69600000      -0.74440000
