17
Properties=species:S:1:pos:R:3 gdb_48178=T pbc="F F F"
O       -0.93470000       1.50000000       0.21840000
C        0.08460000       1.01450000      -0.19540000
C        1.40090000       1.79410000      -0.33970000
O        2.36390000       1.20140000      -0.76810000
C        1.38600000       3.24780000       0.06780000
C        2.73410000       3.94250000      -0.10910000
C        2.68090000       5.42350000       0.31430000
C        3.95980000       6.10380000       0.15250000
C        5.02460000       6.64240000       0.01020000
H        0.17730000      -0.04510000      -0.51460000
H        0.59080000       3.74350000      -0.50670000
H        1.03380000       3.29540000       1.10800000
H        3.49860000       3.42200000       0.47540000
H        3.05300000       3.87170000      -1.15340000
H        1.91300000       5.94650000      -0.27150000
H        2.35960000       5.49550000       1.36220000
H        5.96130000       7.12730000      -0.11180000
