19
Properties=species:S:1:pos:R:3 gdb_126242=T pbc="F F F"
C       -0.29820000       1.57400000       0.00910000
C       -0.02810000       0.05720000       0.01860000
C        0.75570000      -0.43240000      -1.15400000
C        2.10580000      -0.68220000      -1.34260000
N        3.13970000      -0.58630000      -0.41690000
C        4.49690000      -0.79770000      -0.90690000
N        2.30470000      -1.12570000      -2.61480000
N        1.15370000      -1.17120000      -3.23840000
N        0.22860000      -0.74570000      -2.37110000
H        0.63770000       2.14090000      -0.01120000
H       -0.87800000       1.86670000      -0.87190000
H       -0.85960000       1.87420000       0.89920000
H        0.52360000      -0.21210000       0.92670000
H       -0.98250000      -0.48120000       0.07740000
H        3.06180000       0.23020000       0.17230000
H        4.57590000      -1.80070000      -1.33160000
H        4.79980000      -0.08490000      -1.68720000
H        5.18670000      -0.71970000      -0.06270000
H       -0.73570000      -0.71140000      -2.66160000
