19
Properties=species:S:1:pos:R:3 gdb_46322=T pbc="F F F"
O       -0.31270000       0.06110000      -0.09360000
C       -0.20690000       1.24740000       0.03360000
C       -1.17940000       2.38760000       0.36930000
C        0.06360000       3.30850000       0.57030000
C        1.00210000       2.19670000      -0.00350000
C        2.28090000       1.79540000       0.76360000
C        3.43850000       2.22080000      -0.17810000
O        2.84760000       3.00860000      -1.20370000
C        1.56140000       2.46370000      -1.41910000
H       -1.80450000       2.65760000      -0.48840000
H       -1.83310000       2.21520000       1.22810000
H        0.05720000       4.24860000       0.01560000
H        0.26050000       3.52410000       1.62290000
H        2.32970000       2.30230000       1.73030000
H        2.29280000       0.71760000       0.94800000
H        4.20230000       2.82960000       0.31190000
H        3.92710000       1.33510000      -0.61150000
H        1.61950000       1.51510000      -1.97890000
H        0.97680000       3.18240000      -1.99920000
