21
Properties=species:S:1:pos:R:3 gdb_90271=T pbc="F F F"
C       -0.08820000       1.46700000      -0.05810000
C       -0.02120000      -0.02330000       0.04930000
C       -1.01060000      -0.90130000       0.21680000
C       -2.45970000      -1.17820000      -0.12400000
C       -1.90400000      -2.47050000      -0.84580000
O       -1.71290000      -2.31400000      -2.22990000
C       -0.59320000      -2.33380000       0.03560000
C        0.84070000      -2.23680000      -0.51250000
C        1.29320000      -0.80150000      -0.08940000
H        0.45590000       1.94920000       0.76470000
H        0.37710000       1.82480000      -0.98580000
H       -1.12040000       1.82730000      -0.02920000
H       -3.07700000      -1.43750000       0.74290000
H       -3.00170000      -0.46280000      -0.74890000
H       -2.48610000      -3.38650000      -0.72100000
H       -1.23520000      -1.48650000      -2.36710000
H       -0.68130000      -2.95410000       0.93570000
H        1.51000000      -3.01930000      -0.14500000
H        0.82060000      -2.31270000      -1.60610000
H        1.95640000      -0.33910000      -0.83070000
H        1.85780000      -0.81870000       0.85400000
