19
Properties=species:S:1:pos:R:3 gdb_38696=T pbc="F F F"
C       -0.01130000       1.57090000      -0.00370000
C        1.50350000       1.82960000       0.00200000
C        1.93790000       0.96480000      -1.19460000
C        1.33510000      -0.36990000      -0.72880000
O        2.22770000      -0.84050000       0.29790000
C        1.83950000      -0.07360000       1.42130000
C        0.33690000      -0.36660000       1.48500000
C       -0.00540000       0.02440000       0.03370000
O        2.09350000       1.31140000       1.21330000
H       -0.52810000       2.01200000       0.85140000
H       -0.45740000       1.97230000      -0.91950000
H        1.79620000       2.87970000      -0.04620000
H        1.49330000       1.34160000      -2.12160000
H        3.01890000       0.88320000      -1.31490000
H        1.23460000      -1.14800000      -1.48570000
H        2.44110000      -0.37310000       2.28010000
H        0.18610000      -1.42930000       1.69110000
H       -0.19990000       0.22640000       2.22780000
H       -0.89960000      -0.44970000      -0.36960000
