18
Properties=species:S:1:pos:R:3 gdb_93339=T pbc="F F F"
C        0.15160000       1.59420000       0.06980000
C        0.04190000       0.06620000       0.08810000
C        0.70170000      -0.59540000      -1.14370000
N        2.03030000      -0.88660000      -0.63740000
C        2.02850000      -1.07310000       0.74010000
O        2.90260000      -1.57690000       1.39350000
N        0.80210000      -0.53420000       1.19120000
C        0.33690000      -0.47810000       2.49530000
N        0.97800000      -0.88050000       3.51350000
H        1.19320000       1.90200000      -0.06110000
H       -0.44240000       2.00900000      -0.75110000
H       -0.21730000       2.02360000       1.00590000
H       -1.01010000      -0.22720000       0.16380000
H        0.15880000      -1.50280000      -1.44450000
H        0.73060000       0.08820000      -1.99700000
H        2.67170000      -1.46560000      -1.15580000
H       -0.67360000      -0.04660000       2.51910000
H        0.40610000      -0.74980000       4.34640000
