21
Properties=species:S:1:pos:R:3 gdb_63426=T pbc="F F F"
C        0.38310000       1.33580000       0.23970000
C       -0.06490000      -0.09120000      -0.03960000
C       -1.57040000      -0.26350000       0.12590000
C        0.53310000      -0.76610000      -1.30290000
C        1.13470000      -1.78200000      -0.31360000
C        2.65830000      -1.94130000      -0.31380000
C        3.14330000      -2.80560000       0.75440000
C        3.52420000      -3.53060000       1.63370000
O        0.65040000      -1.03430000       0.81860000
H        1.46740000       1.43130000       0.13520000
H       -0.09630000       2.03510000      -0.45420000
H        0.11300000       1.62640000       1.26010000
H       -2.11610000       0.38650000      -0.56700000
H       -1.86760000      -1.29860000      -0.06550000
H       -1.87080000      -0.00670000       1.14670000
H       -0.18640000      -1.16050000      -2.02230000
H        1.27330000      -0.15820000      -1.82950000
H        0.67070000      -2.77640000      -0.35350000
H        2.96020000      -2.34970000      -1.28830000
H        3.11590000      -0.94780000      -0.23050000
H        3.86490000      -4.16300000       2.41540000
