18
Properties=species:S:1:pos:R:3 gdb_95057=T pbc="F F F"
O        0.04500000       1.42310000      -0.09400000
C        0.03940000       0.01500000       0.00520000
C        0.68800000      -0.55530000       1.28550000
C        0.07510000      -1.96050000       1.41510000
C       -1.37900000      -1.77910000       0.95200000
N       -2.24440000      -1.03840000       1.87780000
C       -2.33570000       0.10940000       1.12230000
O       -2.93510000       1.13640000       1.27720000
C       -1.40470000      -0.50850000       0.03810000
H        0.96030000       1.71900000      -0.11900000
H        0.53760000      -0.43560000      -0.87060000
H        1.78090000      -0.56670000       1.23560000
H        0.39930000       0.07630000       2.13230000
H        0.57710000      -2.66190000       0.73770000
H        0.14820000      -2.37670000       2.42430000
H       -1.83950000      -2.68960000       0.55930000
H       -2.65250000      -1.28690000       2.76750000
H       -1.86840000      -0.59180000      -0.94450000
