15
Properties=species:S:1:pos:R:3 gdb_10577=T pbc="F F F"
C       -0.17280000       1.44590000      -0.08420000
N        0.04630000       0.00730000       0.00600000
C        1.38930000      -0.48250000      -0.18660000
C        0.76680000      -0.52280000       1.19510000
C        1.28970000       0.38580000       2.18890000
C        1.70380000       1.13760000       3.03080000
C        0.25930000      -1.77140000       1.71390000
C       -0.14280000      -2.81640000       2.14910000
H        0.66360000       2.04980000       0.29450000
H       -0.34030000       1.69390000      -1.13650000
H       -1.07260000       1.70650000       0.47980000
H        1.48890000      -1.41390000      -0.73670000
H        2.19600000       0.23690000      -0.32100000
H        2.07620000       1.79390000       3.77810000
H       -0.50830000      -3.73620000       2.53360000
