13
Properties=species:S:1:pos:R:3 gdb_123531=T pbc="F F F"
C        0.09910000       1.28390000       0.00840000
N        1.34950000       1.75230000      -0.00080000
N        2.06510000       0.61690000      -0.01390000
N        3.39590000       0.60450000      -0.02660000
C        3.92190000      -0.60070000      -0.03830000
C        3.17940000      -1.80920000      -0.03800000
C        1.80980000      -1.75870000      -0.02470000
C        1.21200000      -0.48590000      -0.01200000
N       -0.04830000      -0.05850000       0.00230000
H       -0.74020000       1.96400000       0.02010000
H        5.00630000      -0.61690000      -0.04860000
H        3.70640000      -2.75540000      -0.04820000
H        1.18290000      -2.64160000      -0.02370000
