19
Properties=species:S:1:pos:R:3 gdb_13789=T pbc="F F F"
C        0.01690000       1.55370000      -0.03150000
C       -0.31740000       0.07540000      -0.26400000
C        0.59710000      -0.55570000      -1.29420000
C        1.94090000      -1.10280000      -0.92760000
C        0.85550000      -2.06180000      -1.37390000
C        0.27580000      -2.98670000      -0.34940000
N       -0.29800000      -4.11790000      -0.86450000
O        0.31950000      -2.78080000       0.85230000
H        1.04080000       1.67160000       0.33850000
H       -0.06950000       2.13530000      -0.95650000
H       -0.65960000       1.99840000       0.70490000
H       -0.24350000      -0.48220000       0.67270000
H       -1.35860000      -0.01430000      -0.60160000
H        0.54050000      -0.08850000      -2.27590000
H        2.78460000      -0.94750000      -1.59040000
H        2.17880000      -1.15490000       0.12970000
H        0.93800000      -2.47100000      -2.37630000
H       -0.47700000      -4.22040000      -1.84790000
H       -0.78830000      -4.72140000      -0.22450000
