17
Properties=species:S:1:pos:R:3 gdb_34979=T pbc="F F F"
N       -0.20490000      -1.23300000      -0.12760000
C       -0.10800000      -0.08290000      -0.05760000
C        0.00760000       1.36460000       0.03640000
C       -0.09620000       2.08590000       1.42040000
C        1.05300000       1.38760000       2.17030000
N        2.18140000       1.83310000       1.29010000
C        2.08510000       3.33010000       1.52300000
C        0.75560000       3.27380000       0.78170000
C        1.36430000       2.08670000      -0.01300000
H       -0.65570000       1.83120000      -0.69830000
H       -1.06080000       2.23540000       1.90090000
H        1.20800000       1.73710000       3.19280000
H        0.96390000       0.29930000       2.18010000
H        2.13600000       3.63730000       2.57140000
H        2.85750000       3.84810000       0.94770000
H        0.22120000       4.11330000       0.33670000
H        1.98230000       2.15810000      -0.90480000
