17
Properties=species:S:1:pos:R:3 gdb_106587=T pbc="F F F"
O        0.02680000       1.37090000       0.10020000
C        0.03300000      -0.04050000      -0.02710000
C       -1.36740000      -0.58480000      -0.09570000
O       -2.14070000      -0.38980000       1.14620000
C       -3.06740000      -1.34170000       0.53030000
C       -3.51490000      -0.58590000      -0.72730000
C       -2.36260000      -0.06830000      -1.15340000
C       -1.77610000      -2.08720000       0.01870000
O       -1.76730000      -2.85510000      -1.14390000
H       -0.56420000       1.57890000       0.83330000
H        0.56650000      -0.27490000      -0.95440000
H        0.57170000      -0.52150000       0.80370000
H       -3.79720000      -1.77040000       1.21590000
H       -4.51100000      -0.53480000      -1.14060000
H       -2.12580000       0.54550000      -2.00880000
H       -1.25530000      -2.57390000       0.85180000
H       -1.79290000      -3.78440000      -0.89890000
