13
Properties=species:S:1:pos:R:3 gdb_49871=T pbc="F F F"
N       -0.10810000       1.24780000       0.00830000
C       -0.04150000      -0.00320000       0.00100000
C       -1.21840000      -0.95200000       0.00210000
N       -0.55570000      -2.25010000      -0.00900000
C       -1.25210000      -3.46080000      -0.01260000
O       -0.76140000      -4.55290000      -0.02170000
C        0.83740000      -2.11520000      -0.01540000
O        1.68170000      -2.94670000      -0.02570000
O        1.11520000      -0.75250000      -0.00980000
H        0.81840000       1.67540000       0.00550000
H       -1.83380000      -0.80490000       0.89490000
H       -1.84360000      -0.79480000      -0.88200000
H       -2.34370000      -3.27340000      -0.00570000
