27
Properties=species:S:1:pos:R:3 gdb_122965=T pbc="F F F"
C       -0.05730000       1.51390000       0.03890000
C        0.01020000      -0.01350000      -0.02890000
C        0.73860000      -0.51050000      -1.27040000
O        0.75120000      -1.92080000      -1.25860000
C        1.40050000      -2.48970000      -2.37540000
C        1.30820000      -4.01450000      -2.29400000
C       -0.15700000      -4.46990000      -2.29810000
C        2.13710000      -4.64810000      -3.42560000
C        2.26130000      -6.17300000      -3.34480000
H        0.94420000       1.95800000       0.05920000
H       -0.58560000       1.92950000      -0.82640000
H       -0.58420000       1.84490000       0.93850000
H        0.51970000      -0.41190000       0.85600000
H       -0.99970000      -0.43960000      -0.02540000
H        0.23820000      -0.13890000      -2.18250000
H        1.77060000      -0.11710000      -1.29190000
H        0.93430000      -2.13180000      -3.31160000
H        2.45780000      -2.17320000      -2.40160000
H        1.75750000      -4.30630000      -1.33390000
H       -0.24860000      -5.54300000      -2.10940000
H       -0.72040000      -3.93840000      -1.52800000
H       -0.62680000      -4.25870000      -3.26710000
H        1.69550000      -4.36960000      -4.39280000
H        3.14370000      -4.20990000      -3.41440000
H        2.69570000      -6.48350000      -2.38780000
H        1.29020000      -6.66690000      -3.44440000
H        2.90710000      -6.55470000      -4.14170000
