19
Properties=species:S:1:pos:R:3 gdb_32994=T pbc="F F F"
C       -0.01680000       1.56110000      -0.03140000
C       -0.06080000       0.03650000      -0.03920000
N        0.78810000      -0.49000000      -1.09550000
C        0.86660000      -1.84380000      -1.37450000
C        0.40490000      -2.83250000      -0.48560000
N        0.50850000      -4.14250000      -0.70990000
C        1.07600000      -4.54730000      -1.84600000
C        1.55970000      -3.65520000      -2.80210000
C        1.45520000      -2.29490000      -2.56650000
H        1.00670000       1.92070000       0.11070000
H       -0.39630000       1.97170000      -0.97440000
H       -0.63740000       1.95770000       0.77610000
H        0.29800000      -0.34310000       0.92540000
H       -1.10260000      -0.30970000      -0.14460000
H        0.85590000       0.10640000      -1.90700000
H       -0.06740000      -2.54750000       0.44970000
H        1.14420000      -5.62070000      -2.00100000
H        2.01110000      -4.02310000      -3.71740000
H        1.82640000      -1.57470000      -3.29090000
