15
Properties=species:S:1:pos:R:3 gdb_4431=T pbc="F F F"
C        0.10240000       1.54730000      -0.22370000
C       -0.01520000       0.07310000      -0.06280000
C       -1.07700000      -0.73510000       0.09330000
C       -2.53990000      -0.50840000       0.17000000
O       -0.64500000      -2.05090000       0.20030000
C        0.73250000      -2.08040000       0.10920000
O        1.40210000      -3.07590000       0.16630000
N        1.10810000      -0.76780000      -0.05190000
H        0.70210000       1.99360000       0.57890000
H        0.57930000       1.81210000      -1.17530000
H       -0.88390000       2.01460000      -0.20300000
H       -2.76770000       0.55560000       0.07530000
H       -3.06670000      -1.04410000      -0.62800000
H       -2.94690000      -0.86260000       1.12400000
H        2.06980000      -0.49390000      -0.14790000
