14
Properties=species:S:1:pos:R:3 gdb_264=T pbc="F F F"
C       -0.19570000       1.47610000       0.12110000
C        0.27380000       0.04440000      -0.13130000
N        0.95220000      -0.51950000       1.02550000
C        0.71340000      -1.81290000       1.43240000
N        1.57710000      -2.25080000       2.43560000
O       -0.15220000      -2.52570000       0.95940000
H        0.64640000       2.14000000       0.34850000
H       -0.70000000       1.87410000      -0.76500000
H       -0.89230000       1.51410000       0.96360000
H       -0.57000000      -0.61780000      -0.33450000
H        0.92660000       0.01340000      -1.01570000
H        1.83640000      -0.10950000       1.28300000
H        1.90090000      -1.56080000       3.09780000
H        1.24450000      -3.09820000       2.87120000
