27
Properties=species:S:1:pos:R:3 gdb_64117=T pbc="F F F"
C        0.10760000       1.51390000       0.05200000
C       -0.05830000      -0.01630000      -0.00570000
C       -1.55300000      -0.35690000      -0.06670000
C        0.71260000      -0.58950000      -1.22350000
C        2.14080000      -0.80910000      -0.71340000
C        1.96600000      -1.36310000       0.72480000
C        1.79480000      -2.89330000       0.68430000
C        3.16420000      -1.01580000       1.61790000
C        0.64720000      -0.68380000       1.22010000
H        1.16210000       1.80800000       0.07640000
H       -0.35200000       1.99300000      -0.82000000
H       -0.36870000       1.92500000       0.94900000
H       -2.02220000       0.07560000      -0.95820000
H       -1.71070000      -1.44050000      -0.09880000
H       -2.08630000       0.03220000       0.80830000
H        0.27080000      -1.54650000      -1.52670000
H        0.66260000       0.07120000      -2.09550000
H        2.72750000      -1.48080000      -1.34900000
H        2.67910000       0.14600000      -0.68150000
H        2.70020000      -3.38100000       0.30550000
H        1.59510000      -3.29070000       1.68570000
H        0.96110000      -3.19220000       0.04040000
H        3.31110000       0.06810000       1.67880000
H        3.02290000      -1.39130000       2.63790000
H        4.08950000      -1.45700000       1.22930000
H        0.86160000       0.06520000       1.98980000
H       -0.00890000      -1.42440000       1.68980000
