17
Properties=species:S:1:pos:R:3 gdb_83126=T pbc="F F F"
C       -0.07220000       1.54120000      -0.02900000
C        0.04590000       0.04050000       0.04170000
C       -0.78930000      -0.80110000       1.00290000
O       -1.51540000      -1.93470000       0.65260000
C        0.69790000      -0.78220000       1.15690000
C        1.41390000      -1.92220000       0.45760000
O        0.97030000      -1.89800000      -0.91460000
C        0.37750000      -0.69300000      -1.21970000
O        0.16630000      -0.36100000      -2.34890000
H        0.88720000       2.00700000      -0.27670000
H       -0.78990000       1.82300000      -0.80470000
H       -0.41330000       1.95370000       0.92470000
H       -1.35920000      -0.21550000       1.71690000
H       -1.07470000      -2.39290000      -0.07320000
H        1.16860000      -0.32080000       2.01730000
H        2.50140000      -1.79820000       0.47490000
H        1.16290000      -2.90470000       0.86910000
