18
Properties=species:S:1:pos:R:3 gdb_18573=T pbc="F F F"
O        0.15650000       1.40440000      -0.00270000
C        0.07610000       0.00150000       0.01080000
C        0.15760000      -0.63390000       1.45680000
C       -1.35310000      -0.64140000       1.39690000
C       -2.45630000      -0.16410000       1.96610000
C       -3.50240000       0.11670000       0.88820000
C       -2.65480000       0.22450000      -0.42480000
C       -1.39020000      -0.59110000      -0.10750000
H       -0.45410000       1.74030000       0.66560000
H        0.80840000      -0.35280000      -0.71800000
H        0.60240000      -1.63410000       1.42600000
H        0.65340000      -0.04180000       2.23030000
H       -2.60890000       0.06730000       3.01440000
H       -4.24770000      -0.68830000       0.81930000
H       -4.06400000       1.03480000       1.09420000
H       -3.19580000      -0.12550000      -1.30770000
H       -2.38120000       1.27100000      -0.60370000
H       -1.35860000      -1.57130000      -0.59720000
