17
Properties=species:S:1:pos:R:3 gdb_42440=T pbc="F F F"
O        0.09080000       0.26540000      -0.87180000
C        0.05330000       1.30130000      -0.22330000
N        1.12410000       1.79370000       0.45870000
C        2.43700000       1.16560000       0.38960000
C        3.48790000       2.11450000       0.03510000
C        4.34840000       2.90970000      -0.23010000
C       -1.20280000       2.11570000      -0.11710000
C       -1.98050000       2.29540000      -1.37980000
N       -2.46630000       1.39940000      -0.33470000
H        1.04510000       2.67760000       0.93500000
H        2.68300000       0.68370000       1.34560000
H        2.35240000       0.37000000      -0.35720000
H        5.11460000       3.60170000      -0.47920000
H       -1.23360000       2.88950000       0.64590000
H       -2.55500000       3.20660000      -1.51850000
H       -1.55520000       1.85900000      -2.27850000
H       -2.21490000       0.44410000      -0.59270000
