17
Properties=species:S:1:pos:R:3 gdb_125920=T pbc="F F F"
C       -0.44710000       1.62400000      -0.27140000
C        0.14520000       0.26270000       0.03410000
C        0.78630000      -0.58810000      -1.14070000
C        2.04340000      -0.58610000      -0.28670000
C        3.20160000      -1.09930000       0.25740000
C        3.22740000      -0.46470000       1.53570000
O        4.22220000      -0.61170000       2.43480000
N        2.17980000       0.32530000       1.78960000
N        1.51090000       0.26280000       0.61010000
H        0.24140000       2.22080000      -0.87690000
H       -1.38840000       1.51140000      -0.81920000
H       -0.65600000       2.17130000       0.65280000
H       -0.54050000      -0.34450000       0.63510000
H        0.32360000      -1.56550000      -1.29240000
H        0.85040000      -0.06430000      -2.09790000
H        3.92660000      -1.78610000      -0.14310000
H        3.98540000      -0.07660000       3.20300000
