18
Properties=species:S:1:pos:R:3 gdb_114378=T pbc="F F F"
O        0.89290000      -0.75970000      -1.18630000
C        0.20980000      -0.46960000       0.01090000
C       -1.31770000      -0.50210000      -0.14700000
C       -2.20470000       0.47220000       0.67230000
C       -2.87400000       0.82830000      -0.65140000
C       -1.94270000       1.36190000      -1.67700000
C       -0.84240000       2.34490000      -1.47370000
O        0.33160000       2.10320000      -1.31430000
N       -1.96910000      -0.08840000      -1.46590000
H        0.89560000       0.06960000      -1.68050000
H        0.48850000      -1.24240000       0.73770000
H        0.52660000       0.49520000       0.42450000
H       -1.66560000      -1.52940000      -0.01540000
H       -2.87360000      -0.01890000       1.38020000
H       -1.69150000       1.29010000       1.18720000
H       -3.94640000       0.85740000      -0.81800000
H       -2.46200000       1.61240000      -2.60660000
H       -1.19270000       3.39830000      -1.54550000
