18
Properties=species:S:1:pos:R:3 gdb_63282=T pbc="F F F"
C       -0.25050000       1.55620000       0.12880000
C        0.00380000       0.06060000       0.06830000
C       -1.16920000      -0.73870000      -0.47370000
O        1.22030000      -0.21470000      -0.73660000
C        1.87820000      -0.80850000       0.31710000
O        2.96820000      -1.28100000       0.32740000
C        0.73410000      -0.56490000       1.27040000
C        0.75160000      -0.17510000       2.69850000
N        0.26550000      -1.49940000       2.28410000
H        0.63300000       2.08640000       0.49280000
H       -0.50140000       1.94160000      -0.86420000
H       -1.08900000       1.77610000       0.79790000
H       -1.42740000      -0.39870000      -1.48090000
H       -0.92950000      -1.80410000      -0.51880000
H       -2.05160000      -0.60500000       0.16180000
H        1.69190000      -0.18330000       3.24150000
H        0.03480000       0.57670000       3.01960000
H       -0.75240000      -1.52660000       2.28610000
