23
Properties=species:S:1:pos:R:3 gdb_87799=T pbc="F F F"
C       -0.08260000       1.51530000      -0.04200000
C        0.01610000       0.00680000       0.01750000
C        1.35740000      -0.67560000      -0.15260000
C        0.66950000      -0.68950000       1.18200000
C        1.24260000      -0.09840000       2.48890000
C        0.78380000      -1.37160000       3.22070000
C       -0.69430000      -1.62050000       3.06730000
C       -1.76990000      -0.55500000       3.06950000
C        0.21740000      -1.94270000       1.90920000
H        0.78860000       1.98780000       0.42390000
H       -0.13420000       1.86880000      -1.07810000
H       -0.97530000       1.88260000       0.47750000
H       -0.83170000      -0.51700000      -0.41920000
H        1.40220000      -1.60160000      -0.71800000
H        2.23460000      -0.04390000      -0.26560000
H        2.33120000      -0.00230000       2.45930000
H        0.81970000       0.84760000       2.84450000
H        1.36840000      -1.88180000       3.97700000
H       -0.99370000      -2.52640000       3.59330000
H       -1.46190000       0.34240000       2.52850000
H       -2.68580000      -0.92600000       2.59590000
H       -2.02280000      -0.25780000       4.09350000
H        0.30660000      -2.94790000       1.51110000
