19
Properties=species:S:1:pos:R:3 gdb_114408=T pbc="F F F"
C        0.26260000       1.04300000       0.39260000
O       -0.16180000      -0.20120000      -0.12020000
C        0.50640000      -0.58260000      -1.29130000
C        1.97030000      -1.11640000      -1.17750000
C        1.54710000      -2.40310000      -1.96750000
C        0.04080000      -1.93190000      -1.86620000
C       -0.23090000      -3.03440000      -0.80170000
C        1.20240000      -3.55780000      -1.02610000
O        1.79150000      -4.53490000      -0.66460000
H        1.32720000       1.03360000       0.66940000
H        0.10200000       1.85500000      -0.33360000
H       -0.33100000       1.24520000       1.28710000
H        0.44110000       0.21820000      -2.04420000
H        2.73160000      -0.51290000      -1.67480000
H        2.29350000      -1.31010000      -0.15130000
H        2.08540000      -2.61810000      -2.89020000
H       -0.63770000      -1.91560000      -2.71760000
H       -0.44880000      -2.67050000       0.20510000
H       -0.99420000      -3.76560000      -1.08290000
