12
Properties=species:S:1:pos:R:3 gdb_130630=T pbc="F F F"
O       -0.19300000       0.02140000       0.00560000
C       -0.05900000       1.21720000       0.01030000
C       -1.18310000       2.26780000       0.03330000
C       -0.40150000       3.55320000       0.02930000
C        1.04350000       3.30730000       0.00620000
N        1.14340000       1.90390000      -0.00380000
O        1.97070000       4.07890000      -0.00310000
N       -1.31190000       5.80520000       0.05410000
N       -0.89230000       4.75240000       0.04260000
H       -1.82490000       2.12500000      -0.84260000
H       -1.79840000       2.11450000       0.92630000
H        2.03750000       1.43550000      -0.01970000
