19
Properties=species:S:1:pos:R:3 gdb_64679=T pbc="F F F"
C       -0.08360000       1.70530000       0.19520000
C       -0.06290000       0.19700000       0.06790000
C       -1.37640000      -0.42520000      -0.41130000
C       -1.74800000      -0.01650000      -1.76320000
C       -2.03900000       0.32920000      -2.87710000
C        1.21030000      -0.48460000      -0.33880000
C        0.71230000      -0.62820000       1.09660000
C        1.41410000      -0.01010000       2.18200000
C        1.99870000       0.49960000       3.10220000
H        0.86970000       2.08400000       0.56960000
H       -0.28580000       2.16550000      -0.77690000
H       -0.86610000       2.02820000       0.89140000
H       -1.29910000      -1.51920000      -0.37560000
H       -2.18120000      -0.15270000       0.28490000
H       -2.30350000       0.62860000      -3.86080000
H        1.15540000      -1.36370000      -0.97200000
H        2.08990000       0.12960000      -0.49300000
H        0.27290000      -1.59170000       1.34230000
H        2.51590000       0.94850000       3.91330000
