13
Properties=species:S:1:pos:R:3 gdb_128078=T pbc="F F F"
C        0.02690000       1.44010000       0.06190000
N       -0.07700000      -0.00650000       0.10770000
C       -1.23550000      -0.65780000      -0.16200000
O       -2.29130000      -0.14060000      -0.46300000
C       -1.11570000      -2.15120000      -0.05620000
N       -0.03440000      -2.80600000       0.25820000
O       -0.38320000      -4.10120000       0.23190000
N       -1.74950000      -4.18370000      -0.12000000
N       -2.16990000      -3.01800000      -0.28770000
H        0.76330000       1.75740000      -0.68370000
H       -0.95230000       1.83270000      -0.21270000
H        0.31550000       1.84410000       1.03780000
H        0.73460000      -0.55550000       0.34590000
