13
Properties=species:S:1:pos:R:3 gdb_13582=T pbc="F F F"
O        0.08250000       1.31080000      -0.18810000
C        0.00920000      -0.04270000       0.00240000
C       -0.38780000      -0.66350000       1.27950000
C       -1.39160000      -0.76570000       0.12060000
C       -2.53320000       0.14040000       0.13450000
O       -2.53150000       1.24740000       0.65130000
C       -3.73480000      -0.33050000      -0.57600000
N       -4.67850000      -0.71350000      -1.12350000
H       -0.64630000       1.72770000       0.30120000
H        0.71360000      -0.56460000      -0.63630000
H        0.07350000      -1.59600000       1.58420000
H       -0.68240000       0.00030000       2.08610000
H       -1.52050000      -1.71850000      -0.37660000
