17
Properties=species:S:1:pos:R:3 gdb_91085=T pbc="F F F"
O       -0.11740000       1.36280000      -0.20170000
C        0.02450000      -0.01840000      -0.06130000
C        0.27440000      -0.66760000       1.36290000
C       -0.64820000      -1.86600000       0.95400000
C       -1.90070000      -2.30910000       1.69250000
O       -2.65630000      -1.27150000       2.30800000
C       -3.06090000      -1.71270000       0.98190000
C       -2.52220000      -0.79200000      -0.06950000
C       -1.19020000      -0.91780000      -0.09750000
H       -0.86660000       1.63310000       0.34210000
H        0.81440000      -0.32120000      -0.75590000
H        1.31020000      -0.89480000       1.62160000
H       -0.19620000      -0.06480000       2.14260000
H       -0.07600000      -2.71770000       0.57540000
H       -1.95270000      -3.27720000       2.18290000
H       -4.04580000      -2.16780000       0.94340000
H       -3.11460000      -0.02020000      -0.54580000
