15
Properties=species:S:1:pos:R:3 gdb_51503=T pbc="F F F"
O       -0.08870000      -0.09790000      -0.08050000
C       -0.01640000       1.10340000      -0.11530000
C        1.29250000       1.87040000      -0.13260000
C        1.31210000       2.97090000      -1.20690000
N        0.31990000       4.02590000      -0.95030000
C        0.97560000       5.12050000      -0.90500000
N        2.34720000       5.01740000      -1.09950000
C        2.67960000       3.67610000      -1.28010000
O        3.78140000       3.21810000      -1.44170000
H       -0.92510000       1.74140000      -0.12940000
H        1.41690000       2.34150000       0.85220000
H        2.12140000       1.17600000      -0.28960000
H        1.10700000       2.52120000      -2.18740000
H        0.52970000       6.09400000      -0.72810000
H        3.01910000       5.76730000      -1.07010000
