15
Properties=species:S:1:pos:R:3 gdb_51769=T pbc="F F F"
O       -0.16120000       0.06720000      -0.30540000
C       -0.07190000       1.25380000      -0.25550000
O        1.02700000       1.88190000       0.22350000
C        1.05320000       3.29200000       0.20230000
C        1.93370000       3.91410000       1.29280000
O        2.71370000       4.63060000       0.31220000
C        2.04720000       3.97280000      -0.79570000
C        2.89890000       3.09150000      -1.57040000
C        3.59070000       2.35880000      -2.22460000
H       -0.86240000       1.96040000      -0.57540000
H        0.03910000       3.69680000       0.13600000
H        1.44060000       4.58680000       2.00160000
H        2.52720000       3.16880000       1.83440000
H        1.57380000       4.71420000      -1.45170000
H        4.20540000       1.70810000      -2.79680000
