18
Properties=species:S:1:pos:R:3 gdb_86867=T pbc="F F F"
C       -0.52340000       1.32220000       0.10440000
C        0.29190000       0.05980000      -0.15390000
N        1.41090000       0.26230000      -1.08490000
C        2.42740000      -0.75100000      -0.80690000
C        2.39050000      -0.92750000       0.72200000
C        0.97410000      -0.48270000       1.10380000
O        0.48570000      -0.54750000       2.20010000
C        2.19790000      -2.07110000      -1.53600000
O        1.31140000      -2.25180000      -2.33100000
H        0.13460000       2.14430000       0.39850000
H       -1.07190000       1.62460000      -0.79220000
H       -1.24110000       1.13740000       0.90830000
H       -0.38620000      -0.74710000      -0.48830000
H        1.09840000       0.17630000      -2.04680000
H        3.41990000      -0.40490000      -1.13350000
H        2.58750000      -1.94590000       1.06890000
H        3.10660000      -0.26840000       1.22210000
H        2.93790000      -2.87130000      -1.30010000
