19
Properties=species:S:1:pos:R:3 gdb_40029=T pbc="F F F"
C        0.01640000       1.52450000       0.03120000
C        1.30680000       0.71760000       0.02580000
C       -0.01610000       0.02290000      -0.02160000
O       -0.41900000      -0.68170000       1.14480000
C       -1.42060000      -1.59610000       0.72330000
C       -2.65240000      -0.86410000       0.09260000
C       -2.00590000      -1.08370000      -1.27660000
C       -1.02340000      -2.08980000      -0.69380000
C       -0.51440000      -0.77420000      -1.20010000
H       -0.27170000       1.99110000       0.96650000
H       -0.25340000       2.08050000      -0.86100000
H        1.92560000       0.72570000      -0.86560000
H        1.85520000       0.65150000       0.95890000
H       -1.60030000      -2.30770000       1.52720000
H       -3.56640000      -1.45470000       0.20270000
H       -2.83240000       0.15950000       0.43500000
H       -2.51660000      -1.11970000      -2.23170000
H       -0.70890000      -3.07220000      -1.01780000
H        0.02930000      -0.73310000      -2.13610000
