20
Properties=species:S:1:pos:R:3 gdb_73574=T pbc="F F F"
C       -0.04420000       1.46010000      -0.02500000
C       -0.00640000      -0.05970000      -0.03320000
C       -1.30770000      -0.72600000      -0.50200000
O       -1.42700000      -1.95090000       0.22240000
C       -0.81490000      -1.77980000       1.50340000
C        0.31970000      -0.78080000       1.30610000
N        1.66400000      -1.26570000       0.80000000
C        1.43750000      -2.10980000      -0.39510000
C        1.32430000      -0.64650000      -0.54640000
H        0.88660000       1.87490000       0.37450000
H       -0.17500000       1.85700000      -1.03870000
H       -0.87250000       1.83180000       0.58770000
H       -2.16770000      -0.06980000      -0.28900000
H       -1.31770000      -0.97420000      -1.56780000
H       -1.54280000      -1.38220000       2.22880000
H       -0.48300000      -2.76340000       1.84910000
H        0.48320000      -0.13990000       2.17410000
H        2.36340000      -2.56010000      -0.74140000
H        0.56380000      -2.74720000      -0.46210000
H        2.06010000      -0.06140000      -1.09180000
