21
Properties=species:S:1:pos:R:3 gdb_84697=T pbc="F F F"
O        0.07600000       1.45240000      -0.11350000
C        0.03170000       0.02580000      -0.02410000
C        0.84000000      -0.46610000       1.15210000
C        0.28530000      -1.14270000       2.16040000
C       -1.18700000      -1.49420000       2.16460000
C       -1.44710000      -2.69640000       1.21550000
C       -1.44240000      -2.05730000      -0.20460000
C       -1.41360000      -0.51920000       0.02350000
C       -1.96650000      -0.37330000       1.45360000
H       -0.10380000       1.80040000       0.76630000
H        0.49600000      -0.31220000      -0.95970000
H        1.89740000      -0.21390000       1.15490000
H        0.89610000      -1.49200000       2.98950000
H       -1.53380000      -1.69110000       3.18230000
H       -0.69980000      -3.48570000       1.32820000
H       -2.42420000      -3.13750000       1.43960000
H       -0.58420000      -2.38620000      -0.79850000
H       -2.33830000      -2.34640000      -0.76090000
H       -1.99800000       0.02320000      -0.72340000
H       -3.04400000      -0.56920000       1.48160000
H       -1.79400000       0.61490000       1.89160000
