17
Properties=species:S:1:pos:R:3 gdb_46751=T pbc="F F F"
O       -0.01880000      -0.05160000      -0.07200000
C       -0.00960000       1.15730000      -0.00910000
N       -1.11950000       1.96650000       0.03730000
C       -0.89890000       3.40710000       0.05160000
C        0.63950000       3.51980000       0.13730000
C        1.31900000       3.59420000       1.51020000
C        0.94670000       2.48350000       2.40750000
N        1.94950000       2.21270000       1.35940000
C        1.20270000       2.08900000       0.03840000
H       -2.03740000       1.55430000      -0.03100000
H       -1.29080000       3.87520000      -0.86020000
H       -1.39120000       3.87990000       0.91030000
H        1.04670000       4.23580000      -0.57500000
H        1.90670000       4.43980000       1.85310000
H        1.39240000       2.48900000       3.39750000
H       -0.03470000       2.02080000       2.36270000
H        1.90830000       1.86100000      -0.75970000
