18
Properties=species:S:1:pos:R:3 gdb_114478=T pbc="F F F"
O       -0.06670000       1.52650000      -0.15910000
C        0.09900000       0.15680000       0.18310000
C       -1.23480000      -0.55900000       0.08540000
O       -1.77810000      -0.54080000      -1.27530000
C       -2.08300000      -1.94490000      -1.21550000
C       -1.05290000      -2.93300000      -1.82340000
N        0.29290000      -2.36900000      -1.59980000
C       -0.38770000      -3.06320000      -0.48660000
C       -1.41040000      -2.09830000       0.16440000
H       -0.40280000       1.53450000      -1.06280000
H        0.84000000      -0.33350000      -0.45430000
H        0.44840000       0.13190000       1.22210000
H       -1.94790000      -0.05260000       0.75090000
H       -3.13360000      -2.17500000      -1.40960000
H       -1.22200000      -3.66400000      -2.60500000
H        0.95840000      -3.03000000      -1.99970000
H        0.06570000      -3.92670000      -0.01560000
H       -1.94000000      -2.50720000       1.02300000
