16
Properties=species:S:1:pos:R:3 gdb_127669=T pbc="F F F"
C        0.27360000       1.35710000       0.12880000
N        0.09520000      -0.08100000       0.07910000
N       -0.09260000      -0.70350000      -1.11270000
C       -0.26430000      -1.96320000      -0.75050000
N       -0.20200000      -2.19330000       0.58750000
C        0.02340000      -0.98640000       1.08190000
C        0.15390000      -0.67510000       2.54770000
C        1.43680000      -0.08450000       2.92540000
C        2.48800000       0.40870000       3.23450000
H        0.86540000       1.61970000       1.00660000
H        0.80160000       1.66500000      -0.77400000
H       -0.69270000       1.87040000       0.16780000
H       -0.43550000      -2.74330000      -1.47710000
H       -0.66080000      -0.01100000       2.86690000
H        0.00730000      -1.62290000       3.07420000
H        3.42220000       0.83010000       3.51320000
