14
Properties=species:S:1:pos:R:3 gdb_1446=T pbc="F F F"
C       -0.10350000       1.53670000       0.17790000
C        0.02840000       0.03150000      -0.03740000
C        0.76570000      -0.30900000      -1.33040000
O        1.19620000       0.51240000      -2.09620000
N        0.88980000      -1.69690000      -1.53390000
C        1.49770000      -2.36020000      -2.59640000
O        2.03350000      -1.85850000      -3.54410000
H        0.88000000       2.01000000       0.22390000
H       -0.64990000       2.00050000      -0.64660000
H       -0.63520000       1.74440000       1.11020000
H        0.56390000      -0.43920000       0.79830000
H       -0.95910000      -0.44890000      -0.06750000
H        0.48980000      -2.29410000      -0.82440000
H        1.42050000      -3.45790000      -2.44930000
