13
Properties=species:S:1:pos:R:3 gdb_131702=T pbc="F F F"
O       -0.06510000       1.38360000      -0.48830000
C       -0.03420000       0.15850000       0.19320000
C       -1.32840000      -0.58190000       0.05190000
N       -2.25320000      -0.33800000      -0.82240000
C       -3.18110000      -1.32560000      -0.54120000
N       -2.83980000      -2.12460000       0.44570000
O       -1.59570000      -1.62390000       0.84360000
C       -4.40040000      -1.47730000      -1.24620000
C       -5.43140000      -1.59870000      -1.85040000
H       -0.67320000       1.28870000      -1.23240000
H        0.77470000      -0.50060000      -0.16650000
H        0.16220000       0.34900000       1.25460000
H       -6.34450000      -1.70660000      -2.38320000
