15
Properties=species:S:1:pos:R:3 gdb_17750=T pbc="F F F"
O       -0.09960000       1.36680000       0.05330000
C       -0.00320000      -0.01440000       0.06250000
C        0.51130000      -0.85780000       1.26160000
C       -0.33100000      -1.96050000       0.60340000
C       -1.29670000      -0.91320000      -0.02990000
C       -0.86310000      -1.41310000      -1.43060000
C        0.45530000      -0.77670000      -1.20870000
N        0.24130000      -2.20100000      -0.79630000
H        0.77970000       1.73660000      -0.08650000
H        1.58590000      -1.02090000       1.38530000
H        0.05890000      -0.51780000       2.19830000
H       -0.62530000      -2.87840000       1.10710000
H       -2.27040000      -0.60700000       0.34140000
H       -1.38230000      -1.73200000      -2.32580000
H        1.26760000      -0.55530000      -1.89160000
