20
Properties=species:S:1:pos:R:3 gdb_22178=T pbc="F F F"
C       -0.10780000       1.48470000       0.06450000
C       -0.03440000      -0.04820000       0.00420000
C       -1.40930000      -0.68040000       0.21160000
C        0.78540000      -0.56830000      -1.23270000
O        0.89920000       0.36890000      -2.27510000
C        2.02730000      -0.81390000      -0.31640000
C        1.09950000      -0.60200000       0.85890000
N        1.11560000      -0.86890000       2.09590000
O        2.35040000      -1.43210000       2.47880000
H        0.87270000       1.94660000      -0.07400000
H       -0.76680000       1.86500000      -0.72130000
H       -0.50080000       1.79720000       1.03650000
H       -2.10900000      -0.34000000      -0.55950000
H       -1.35600000      -1.77270000       0.17050000
H       -1.81710000      -0.40480000       1.18890000
H        0.36980000      -1.51880000      -1.59520000
H        1.42980000      -0.02040000      -2.97700000
H        2.53310000      -1.78070000      -0.37360000
H        2.77050000      -0.01560000      -0.41670000
H        2.21360000      -1.59630000       3.41790000
