15
Properties=species:S:1:pos:R:3 gdb_11331=T pbc="F F F"
C        0.07090000       1.42350000       0.03710000
N        0.03770000      -0.02240000      -0.06340000
C       -1.08110000      -0.61350000      -0.08520000
N       -1.24210000      -1.98690000      -0.20090000
C       -2.60900000      -2.38870000       0.07060000
C       -3.36430000      -1.05480000       0.07230000
O       -4.55390000      -0.87650000       0.13630000
N       -2.38360000      -0.08790000      -0.00890000
H        1.04560000       1.73330000       0.42430000
H       -0.04950000       1.90200000      -0.94580000
H       -0.69230000       1.84630000       0.71130000
H       -0.46100000      -2.55190000       0.08940000
H       -3.02270000      -3.05110000      -0.69710000
H       -2.74450000      -2.87510000       1.04660000
H       -2.59510000       0.89540000      -0.03760000
