15
Properties=species:S:1:pos:R:3 gdb_27085=T pbc="F F F"
O       -0.38950000       1.31600000      -0.02350000
C       -0.04990000      -0.00140000       0.02090000
C        0.01580000      -0.97210000      -0.94810000
N       -0.20220000      -0.80700000      -2.30840000
C       -0.03530000      -1.77430000      -3.26580000
N       -0.30470000      -1.53540000      -4.49060000
N        0.34050000      -2.18260000      -0.39080000
C        0.45980000      -1.95850000       0.90150000
N        0.23430000      -0.65610000       1.21090000
H        0.38950000       1.84730000      -0.23090000
H       -0.57160000       0.07770000      -2.62410000
H        0.33850000      -2.71140000      -2.84630000
H       -0.11690000      -2.36210000      -5.05300000
H        0.70220000      -2.70060000       1.64640000
H        0.21690000      -0.23370000       2.12390000
