15
Properties=species:S:1:pos:R:3 gdb_124239=T pbc="F F F"
C       -0.00280000       1.54110000      -0.09320000
C        0.00080000       0.03820000       0.05970000
O        0.00230000      -0.52080000       1.13660000
C        0.00030000      -0.76480000      -1.18820000
C        0.00230000      -2.11340000      -1.41990000
C        0.00560000      -3.27500000      -0.49110000
N        0.00030000      -2.26030000      -2.79230000
N       -0.00130000      -1.13880000      -3.36730000
O       -0.00290000      -0.13350000      -2.37410000
H        0.87400000       1.86810000      -0.66190000
H       -0.88190000       1.86420000      -0.66080000
H       -0.00320000       2.00140000       0.89470000
H       -0.87490000      -3.90310000      -0.66020000
H        0.88770000      -3.90020000      -0.66310000
H        0.00670000      -2.92670000       0.54100000
