23
Properties=species:S:1:pos:R:3 gdb_121536=T pbc="F F F"
C        0.04180000       1.57600000      -0.02490000
C        0.00830000       0.04590000       0.01650000
C       -1.41430000      -0.52120000       0.01210000
C       -1.44180000      -2.06250000       0.05750000
C       -2.79170000      -2.61590000       0.05120000
C       -3.91860000      -3.04550000       0.04390000
C       -5.25760000      -3.56180000       0.04200000
C       -5.84130000      -4.18780000      -1.21490000
C       -5.50440000      -5.06010000      -0.04160000
H        1.06900000       1.95370000      -0.02150000
H       -0.45100000       1.95820000      -0.92570000
H       -0.47440000       2.00610000       0.84050000
H        0.56210000      -0.35700000      -0.84210000
H        0.53780000      -0.30850000       0.91110000
H       -1.97430000      -0.12980000       0.87010000
H       -1.94910000      -0.18210000      -0.88330000
H       -0.88000000      -2.45790000      -0.80000000
H       -0.90270000      -2.40660000       0.95120000
H       -5.96180000      -3.00790000       0.65670000
H       -6.88490000      -3.98890000      -1.43180000
H       -5.19780000      -4.23320000      -2.08520000
H       -4.63190000      -5.69820000      -0.11480000
H       -6.31440000      -5.46540000       0.55450000
