18
Properties=species:S:1:pos:R:3 gdb_124628=T pbc="F F F"
C        0.00920000       1.53660000       0.02000000
C        0.02020000       0.00800000       0.00060000
C        0.72010000      -0.58550000       1.23070000
N       -1.36250000      -0.46730000      -0.13410000
C       -1.67600000      -1.72240000      -0.53210000
C       -2.88320000      -2.40560000      -0.51560000
N       -2.64460000      -3.61580000      -1.08400000
N       -1.46930000      -3.78200000      -1.44420000
O       -0.74460000      -2.47710000      -1.07420000
H        1.03010000       1.92300000       0.07610000
H       -0.46620000       1.93850000      -0.87870000
H       -0.53360000       1.91380000       0.89570000
H        0.54490000      -0.33240000      -0.89750000
H        0.71740000      -1.67750000       1.18720000
H        1.76050000      -0.24880000       1.27820000
H        0.21940000      -0.27210000       2.15380000
H       -2.05530000      -0.00440000       0.43430000
H       -3.85160000      -2.10850000      -0.15390000
