20
Properties=species:S:1:pos:R:3 gdb_32203=T pbc="F F F"
C        0.07680000       1.55240000      -0.01010000
C        0.00440000       0.01390000       0.04430000
C       -1.40810000      -0.52660000       0.02260000
C       -2.05120000      -0.87440000       1.21060000
C       -3.35150000      -1.37130000       1.23190000
C       -4.03110000      -1.52960000       0.02760000
C       -3.41540000      -1.18830000      -1.17000000
C       -2.10810000      -0.68570000      -1.19190000
N       -1.48710000      -0.41540000      -2.41910000
H        1.11530000       1.89880000      -0.01010000
H       -0.41010000       1.95380000      -0.90590000
H       -0.43050000       1.99260000       0.85380000
H        0.57800000      -0.41060000      -0.78920000
H        0.50140000      -0.32800000       0.95840000
H       -1.50750000      -0.75550000       2.14420000
H       -3.82210000      -1.63560000       2.17220000
H       -5.04500000      -1.91640000       0.01610000
H       -3.94770000      -1.31240000      -2.10940000
H       -2.13280000      -0.30540000      -3.18790000
H       -0.81560000       0.33720000      -2.40540000
