17
Properties=species:S:1:pos:R:3 gdb_33571=T pbc="F F F"
C       -0.20510000      -1.33080000      -0.44260000
C       -0.11130000      -0.15500000      -0.21510000
C        0.03530000       1.26780000       0.08390000
C       -0.41080000       1.63790000       1.53320000
C        0.40470000       2.90720000       1.82330000
O        1.53700000       2.88480000       0.94850000
C        1.53080000       1.70220000       0.17990000
C       -0.67820000       2.08740000      -0.90130000
C       -1.26150000       2.77800000      -1.69230000
H       -0.29760000      -2.36740000      -0.65440000
H       -1.48810000       1.78830000       1.60800000
H       -0.12510000       0.81970000       2.19910000
H       -0.16990000       3.81690000       1.61500000
H        0.74060000       2.94360000       2.86650000
H        2.09970000       0.89360000       0.66320000
H        1.96840000       1.91330000      -0.79820000
H       -1.77490000       3.37970000      -2.40100000
