19
Properties=species:S:1:pos:R:3 gdb_109263=T pbc="F F F"
C        0.37860000       1.30170000       0.08500000
O        0.22380000      -0.11160000      -0.06460000
C        0.56160000      -0.59840000      -1.25980000
N        0.96900000       0.08660000      -2.25950000
C        1.30140000      -0.87090000      -3.32160000
C        1.12200000      -2.27200000      -2.68410000
C        2.29860000      -2.94540000      -1.92650000
C        1.44650000      -2.81000000      -0.63540000
N        0.43570000      -1.98980000      -1.38200000
H        1.41630000       1.59790000      -0.09210000
H       -0.26100000       1.83500000      -0.62320000
H        0.08430000       1.52550000       1.11110000
H        0.62980000      -0.73290000      -4.17780000
H        2.32310000      -0.70420000      -3.68750000
H        0.55440000      -2.96050000      -3.31500000
H        2.55990000      -3.96010000      -2.23300000
H        3.20420000      -2.33300000      -1.91500000
H        1.00830000      -3.74720000      -0.28340000
H        1.89620000      -2.28790000       0.21270000
