17
Properties=species:S:1:pos:R:3 gdb_71973=T pbc="F F F"
C       -0.03880000       1.49040000       0.04320000
C        0.05710000      -0.00410000       0.00130000
C        0.90030000      -0.90270000      -0.89160000
N        0.02850000      -2.08060000      -0.49860000
C        0.40660000      -2.25700000       0.95330000
C       -0.23240000      -0.90400000       1.25190000
C       -0.65360000      -0.35410000       2.49350000
N       -0.98790000       0.08470000       3.51210000
C       -1.01560000      -1.04380000      -0.04240000
H        0.89190000       1.93260000       0.41390000
H       -0.22990000       1.89150000      -0.95760000
H       -0.84730000       1.82100000       0.70160000
H        0.74870000      -0.67830000      -1.95100000
H        1.96860000      -1.03330000      -0.68820000
H       -0.16080000      -3.08340000       1.38640000
H        1.47630000      -2.39680000       1.13780000
H       -2.07630000      -1.05770000      -0.25020000
