19
Properties=species:S:1:pos:R:3 gdb_34581=T pbc="F F F"
C        0.08360000      -1.24040000       0.02540000
C       -0.02010000      -0.03820000       0.02220000
C       -0.08250000       1.38170000       0.01160000
C       -1.28800000       1.99300000       0.09440000
C       -1.61290000       3.40910000       0.05910000
C       -0.82540000       4.49730000       0.11240000
C        0.66140000       4.59440000       0.28600000
C        1.38670000       3.34480000       0.79130000
C        1.24710000       2.10440000      -0.10680000
H        0.15630000      -2.29940000       0.02820000
H       -2.15130000       1.33640000       0.16070000
H       -2.67990000       3.60040000      -0.03720000
H       -1.32740000       5.45980000       0.02930000
H        1.10560000       4.92000000      -0.66760000
H        0.86640000       5.42130000       0.98070000
H        2.45120000       3.58740000       0.88480000
H        1.03430000       3.09780000       1.79910000
H        2.04130000       1.39290000       0.13590000
H        1.40910000       2.38870000      -1.15600000
