17
Properties=species:S:1:pos:R:3 gdb_90533=T pbc="F F F"
C        0.41610000       1.55870000      -0.18280000
C        0.06360000       0.10590000       0.02310000
O        0.88720000      -0.81330000      -0.77270000
C        1.15550000      -1.63970000       0.35770000
C        2.51270000      -1.29240000       1.05450000
N        1.82330000      -0.19870000       1.80510000
C        0.48940000      -0.63020000       1.31660000
C        3.03430000      -2.36580000       1.89410000
N        3.41790000      -3.21340000       2.58130000
H        1.43740000       1.75670000       0.14870000
H        0.32290000       1.81920000      -1.24140000
H       -0.26910000       2.19700000       0.38570000
H       -0.99420000      -0.08150000      -0.20730000
H        0.90720000      -2.69210000       0.21290000
H        3.29090000      -0.93560000       0.37280000
H        1.94310000      -0.25400000       2.80900000
H       -0.26310000      -0.85640000       2.07160000
