22
Properties=species:S:1:pos:R:3 gdb_9685=T pbc="F F F"
C       -0.38590000       1.46150000       0.50720000
C        0.21840000       0.19750000      -0.11830000
C        1.04040000      -0.57880000       0.88340000
O        0.33280000      -1.28850000       1.91160000
C        1.14460000      -2.04800000       0.99310000
C        0.38630000      -2.97480000       0.06600000
C        2.39710000      -2.63480000       1.63090000
C        2.10250000      -3.76130000       2.62970000
H        0.39540000       2.12910000       0.88680000
H       -0.97710000       2.02010000      -0.22430000
H       -1.03750000       1.19850000       1.34570000
H       -0.58160000      -0.42860000      -0.52280000
H        0.86740000       0.47070000      -0.96090000
H        1.89390000      -0.01150000       1.26780000
H       -0.52870000      -2.51380000      -0.30710000
H        1.00970000      -3.25750000      -0.78960000
H        0.10280000      -3.89360000       0.58860000
H        3.06460000      -2.99770000       0.83850000
H        2.93020000      -1.83020000       2.14850000
H        3.02040000      -4.08410000       3.12990000
H        1.40130000      -3.41510000       3.39490000
H        1.66790000      -4.64020000       2.14380000
