17
Properties=species:S:1:pos:R:3 gdb_80005=T pbc="F F F"
O        0.06390000       1.50470000      -0.05620000
C        0.02750000       0.12050000       0.00420000
C        0.12340000      -0.63480000       1.37200000
C       -1.14580000      -0.01890000       2.04580000
C       -2.11420000      -0.05130000       1.10750000
C       -1.34660000      -0.70940000      -0.02810000
O       -1.62910000      -1.44920000      -1.21090000
C       -0.55670000      -2.38420000      -0.80890000
C       -0.59890000      -1.83990000       0.65980000
H       -0.56890000       1.83300000       0.59740000
H        0.73680000      -0.23390000      -0.74430000
H        1.03280000      -0.69360000       1.96960000
H       -1.18640000       0.39060000       3.04520000
H       -3.13410000       0.30160000       1.14470000
H       -0.89470000      -3.41800000      -0.91080000
H        0.34930000      -2.23040000      -1.40090000
H       -1.16890000      -2.49180000       1.32030000
