17
Properties=species:S:1:pos:R:3 gdb_24970=T pbc="F F F"
N       -0.05020000       1.26710000      -0.02660000
C       -0.01190000       0.00240000      -0.02090000
N       -1.10980000      -0.85220000      -0.03440000
C       -0.64450000      -2.15930000       0.09810000
C        0.68400000      -2.10560000       0.09530000
C        1.37410000      -3.41990000       0.03180000
C        0.14670000      -4.36850000       0.28280000
C       -1.17570000      -3.55140000       0.04250000
O        1.12750000      -0.80140000       0.00360000
H        0.88800000       1.65720000      -0.00970000
H       -2.02960000      -0.49940000       0.16320000
H        1.84090000      -3.59960000      -0.94620000
H        2.15580000      -3.55960000       0.78660000
H        0.18850000      -5.25700000      -0.35060000
H        0.16870000      -4.71000000       1.32050000
H       -1.93260000      -3.78120000       0.80110000
H       -1.62710000      -3.77750000      -0.93300000
