25
Properties=species:S:1:pos:R:3 gdb_64485=T pbc="F F F"
C        0.09330000       1.60560000      -0.00180000
C       -0.04590000       0.07490000      -0.00130000
O       -1.43500000      -0.27350000       0.08130000
C        0.60680000      -0.49830000      -1.28460000
C        0.11290000      -1.87030000      -1.78220000
C       -0.07400000      -2.99200000      -0.73910000
C        0.86950000      -2.95990000       0.47390000
C        0.42370000      -1.97680000       1.56830000
C        0.61390000      -0.48350000       1.27390000
H        1.14440000       1.91050000      -0.04420000
H       -0.40970000       2.03900000      -0.87490000
H       -0.35600000       2.03270000       0.89930000
H       -1.88640000       0.13490000      -0.66490000
H        0.46200000       0.21750000      -2.10490000
H        1.69040000      -0.53060000      -1.12000000
H       -0.83850000      -1.73760000      -2.31000000
H        0.82720000      -2.20120000      -2.54650000
H       -1.10120000      -2.95740000      -0.36170000
H        0.03150000      -3.95350000      -1.25550000
H        0.89650000      -3.96310000       0.91620000
H        1.90120000      -2.74480000       0.16090000
H       -0.63410000      -2.16160000       1.78870000
H        0.97280000      -2.19850000       2.49210000
H        1.68560000      -0.25430000       1.21350000
H        0.22460000       0.08250000       2.12870000
