18
Properties=species:S:1:pos:R:3 gdb_10650=T pbc="F F F"
C       -0.09480000       1.36510000      -0.17070000
C        0.18360000      -0.10710000       0.03650000
C        1.56410000      -0.66710000       0.02720000
C        0.77440000      -0.66650000       1.33810000
C        1.21710000       0.21830000       2.48260000
O        2.24190000      -0.39450000       3.25450000
C        0.22090000      -1.98890000       1.75150000
O       -0.08780000      -2.87040000       0.98350000
H        0.71960000       1.99910000       0.18960000
H       -0.21890000       1.57100000      -1.23940000
H       -1.01490000       1.67600000       0.33490000
H       -0.56900000      -0.77240000      -0.37820000
H        1.72530000      -1.63550000      -0.43310000
H        2.39520000       0.02980000      -0.03930000
H        1.52900000       1.20510000       2.11460000
H        0.39000000       0.38190000       3.18320000
H        2.96550000      -0.60900000       2.65580000
H        0.09630000      -2.11570000       2.84820000
