19
Properties=species:S:1:pos:R:3 gdb_87223=T pbc="F F F"
C       -0.00810000       1.72540000       0.22170000
C       -0.07340000       0.22090000       0.06270000
C        1.19880000      -0.52240000      -0.35980000
C        0.65380000      -0.64200000       1.04800000
O        1.30010000      -0.00910000       2.10940000
N       -1.36340000      -0.26620000      -0.38140000
C       -1.60470000      -0.07500000      -1.81010000
C       -2.87340000      -0.68660000      -2.21100000
N       -3.86140000      -1.19130000      -2.53220000
H        0.92310000       2.01630000       0.70920000
H       -0.06060000       2.23550000      -0.74630000
H       -0.84410000       2.07090000       0.83650000
H        1.11130000      -1.38410000      -1.01430000
H        2.10290000       0.06340000      -0.49180000
H        0.17430000      -1.58740000       1.31170000
H        2.13460000      -0.46420000       2.26350000
H       -1.47990000      -1.24540000      -0.14600000
H       -1.65950000       0.99810000      -2.02630000
H       -0.80810000      -0.48380000      -2.45720000
