17
Properties=species:S:1:pos:R:3 gdb_38221=T pbc="F F F"
C       -0.03860000       1.60150000       0.09710000
C        1.44450000       1.19960000      -0.00180000
N        1.12950000       0.09690000       1.01810000
C        0.01320000       0.04640000      -0.02100000
C       -1.12330000      -0.87860000      -0.33310000
N       -1.48660000      -0.67250000      -1.74750000
C       -0.74280000      -0.03300000      -2.54790000
O        0.49130000       0.54720000      -2.37400000
C        1.05980000       0.18880000      -1.11900000
H       -0.35630000       1.97670000       1.06970000
H       -0.46020000       2.15430000      -0.74060000
H        2.33560000       1.81950000       0.09480000
H        1.76560000      -0.69590000       0.86830000
H       -0.84330000      -1.93040000      -0.19120000
H       -2.01560000      -0.70100000       0.27570000
H       -1.06790000       0.13090000      -3.57360000
H        1.75160000      -0.64940000      -1.26050000
