21
Properties=species:S:1:pos:R:3 gdb_57882=T pbc="F F F"
C        0.54040000       1.62100000       0.18020000
C       -0.14170000       0.25620000      -0.04360000
O        0.17140000      -0.24240000      -1.31880000
C        0.32840000      -0.74300000       1.02250000
O        1.15220000      -1.57780000       0.68810000
C       -0.17990000      -0.65820000       2.42660000
C       -1.40730000       0.18190000       2.72930000
C        0.04080000      -1.91920000       3.25260000
C        0.92170000      -0.74110000       3.48930000
H        1.62680000       1.50170000       0.12710000
H        0.23130000       2.30260000      -0.61590000
H        0.28440000       2.06970000       1.14410000
H       -1.23040000       0.38100000       0.02760000
H        0.82620000      -0.94130000      -1.15690000
H       -2.28400000      -0.17250000       2.17650000
H       -1.64760000       0.11990000       3.79470000
H       -1.26430000       1.23970000       2.49050000
H       -0.72410000      -2.15310000       3.98450000
H        0.46700000      -2.76440000       2.72660000
H        1.94190000      -0.79520000       3.12820000
H        0.77510000      -0.14280000       4.38200000
