21
Properties=species:S:1:pos:R:3 gdb_122049=T pbc="F F F"
C       -0.00540000       1.54270000       0.04480000
C        0.04140000       0.01350000      -0.01640000
C        0.72970000      -0.51220000      -1.28030000
C        0.76680000      -2.04310000      -1.33920000
N        1.42780000      -2.56750000      -2.53830000
C        2.82650000      -2.63150000      -2.52090000
N        3.55110000      -2.94270000      -3.51250000
C        0.63020000      -2.93200000      -3.62210000
O        0.99680000      -3.34220000      -4.68910000
H        1.00300000       1.97020000       0.02890000
H       -0.55300000       1.95560000      -0.80920000
H       -0.50020000       1.88850000       0.95730000
H        0.56250000      -0.37370000       0.86930000
H       -0.97980000      -0.38720000       0.03420000
H        0.21400000      -0.13600000      -2.17330000
H        1.75550000      -0.12460000      -1.33470000
H        1.27740000      -2.44480000      -0.45680000
H       -0.25170000      -2.44260000      -1.31400000
H        3.20620000      -2.37980000      -1.52220000
H        4.53050000      -2.93380000      -3.22990000
H       -0.44090000      -2.80040000      -3.36400000
