17
Properties=species:S:1:pos:R:3 gdb_16935=T pbc="F F F"
O        0.00450000       0.00260000       0.02720000
C       -0.00340000       1.20490000       0.01090000
C       -1.23790000       2.13780000       0.00690000
N       -0.67780000       3.50730000       0.05380000
C       -0.07240000       3.69720000       1.39810000
C        1.20420000       2.78670000       1.42950000
C        1.17880000       2.17380000       0.00130000
C        0.53850000       3.34410000      -0.78500000
H       -1.80300000       1.99610000      -0.92180000
H       -1.91200000       1.93430000       0.84240000
H        0.19070000       4.75170000       1.51620000
H       -0.79990000       3.44720000       2.17330000
H        2.11740000       3.37070000       1.57590000
H        1.16900000       2.02510000       2.21210000
H        2.11480000       1.73810000      -0.34310000
H        0.27020000       3.09870000      -1.81640000
H        1.14200000       4.25600000      -0.78020000
