19
Properties=species:S:1:pos:R:3 gdb_119249=T pbc="F F F"
C       -0.11480000       1.31730000       0.08690000
O        0.54780000       0.10880000      -0.21360000
C       -0.24500000      -0.79150000      -0.95630000
C        0.47350000      -2.11140000      -1.04290000
C        0.24450000      -3.01390000      -2.21600000
C        1.58100000      -2.32770000      -2.04130000
O        0.56040000      -2.77850000       0.20450000
C        1.54170000      -2.38020000       1.05430000
O        1.63500000      -2.82790000       2.15720000
H       -0.38820000       1.86850000      -0.82610000
H       -1.02980000       1.14340000       0.67310000
H        0.57380000       1.92720000       0.67560000
H       -1.22070000      -0.94130000      -0.46610000
H       -0.43490000      -0.40450000      -1.97070000
H        0.19440000      -4.07390000      -1.99770000
H       -0.42010000      -2.67650000      -3.00330000
H        1.84000000      -1.50480000      -2.69770000
H        2.41870000      -2.94180000      -1.73200000
H        2.21720000      -1.63340000       0.60960000
