13
Properties=species:S:1:pos:R:3 gdb_20522=T pbc="F F F"
C       -0.04760000       1.49940000       0.00960000
C        0.03950000      -0.00850000       0.00230000
O        1.08780000      -0.61600000      -0.00900000
C       -1.24360000      -0.77210000       0.00980000
N       -2.40950000      -0.16130000       0.02200000
O       -3.35710000      -1.16330000       0.02580000
C       -2.73350000      -2.35800000       0.01550000
C       -1.39050000      -2.18940000       0.00490000
H        0.95860000       1.91880000       0.00270000
H       -0.61170000       1.84960000      -0.86060000
H       -0.59640000       1.84190000       0.89260000
H       -3.38120000      -3.22050000       0.01730000
H       -0.60760000      -2.92720000      -0.00490000
