22
Properties=species:S:1:pos:R:3 gdb_86341=T pbc="F F F"
C       -1.18510000       0.91250000      -0.73890000
C       -0.16250000      -0.19920000      -0.62830000
O        1.04830000       0.08490000      -1.36760000
C        1.88610000      -0.24520000      -0.23510000
C        2.92420000       0.82010000       0.04980000
C        0.64350000      -0.38180000       0.68680000
N        0.48180000       0.68460000       1.65450000
C       -0.48590000       0.44570000       2.72210000
C        0.97440000       0.41290000       3.00240000
H       -0.78900000       1.84560000      -0.33440000
H       -1.44590000       1.06350000      -1.79130000
H       -2.10030000       0.65220000      -0.19610000
H       -0.59920000      -1.15020000      -0.96830000
H        2.37590000      -1.21710000      -0.39730000
H        2.44730000       1.77290000       0.28660000
H        3.56130000       0.52500000       0.89050000
H        3.56210000       0.95090000      -0.83010000
H        0.53250000      -1.37610000       1.14890000
H       -1.08630000       1.30190000       3.01500000
H       -1.01500000      -0.50610000       2.72760000
H        1.42230000      -0.56090000       3.19530000
H        1.46030000       1.24470000       3.50370000
