18
Properties=species:S:1:pos:R:3 gdb_70703=T pbc="F F F"
C       -0.18090000       1.51530000       0.05190000
C        0.10470000       0.03810000      -0.00960000
O       -0.69880000      -0.79730000       0.84800000
C        0.70220000      -0.71090000       1.11490000
C        1.49660000      -1.98310000       0.86040000
C        2.05300000      -2.02230000      -0.56500000
N        1.03600000      -1.63300000      -1.53600000
C        0.23350000      -0.53350000      -1.41440000
O       -0.37630000      -0.05550000      -2.35270000
H        0.66480000       2.09130000      -0.33770000
H       -1.05270000       1.74630000      -0.56420000
H       -0.37260000       1.81920000       1.08360000
H        0.94270000      -0.15190000       2.01930000
H        2.32510000      -2.06260000       1.57080000
H        0.83080000      -2.83550000       1.02910000
H        2.93270000      -1.36460000      -0.63790000
H        2.38960000      -3.03290000      -0.81270000
H        1.13460000      -1.95810000      -2.48730000
