15
Properties=species:S:1:pos:R:3 gdb_67420=T pbc="F F F"
O       -0.13520000       1.41550000       0.09050000
C        0.00390000       0.06450000       0.01860000
C       -1.05160000      -1.00180000      -0.07490000
C       -0.40570000      -1.63370000      -1.30380000
C        0.90490000      -0.97130000      -0.80650000
O        1.21480000      -1.69180000       0.41270000
C        0.08630000      -1.06080000       1.02120000
C       -0.14920000      -1.13050000       2.41350000
C       -0.34920000      -1.16530000       3.59980000
H        0.62640000       1.78290000       0.55570000
H       -2.09030000      -0.94690000       0.22210000
H       -0.38360000      -2.72290000      -1.39360000
H       -0.77310000      -1.17140000      -2.22350000
H        1.77090000      -0.79440000      -1.43980000
H       -0.52740000      -1.20520000       4.64590000
