21
Properties=species:S:1:pos:R:3 gdb_123242=T pbc="F F F"
O       -0.07030000       1.47610000      -0.18100000
C       -0.00040000       0.07760000       0.01070000
C       -1.38680000      -0.54460000       0.06370000
O       -2.01230000      -0.25250000      -1.17380000
C       -3.36520000      -0.64810000      -1.24010000
C       -3.90890000      -0.27980000      -2.61440000
C       -5.38530000      -0.67250000      -2.78050000
C       -5.94710000      -0.19570000      -4.10150000
O       -6.49420000      -0.89570000      -4.91260000
H       -0.66290000       1.60610000      -0.93070000
H        0.58080000      -0.41120000      -0.78760000
H        0.51890000      -0.09580000       0.95890000
H       -1.32320000      -1.63330000       0.22450000
H       -1.96350000      -0.10650000       0.89400000
H       -3.45440000      -1.73430000      -1.07070000
H       -3.95100000      -0.14910000      -0.44900000
H       -3.78700000       0.80040000      -2.76120000
H       -3.29970000      -0.77380000      -3.37940000
H       -5.53170000      -1.75430000      -2.71120000
H       -5.97830000      -0.19780000      -1.98410000
H       -5.81310000       0.89710000      -4.28470000
