14
Properties=species:S:1:pos:R:3 gdb_43653=T pbc="F F F"
N       -0.13470000       1.26900000       0.10960000
C       -0.04080000       0.00820000      -0.00110000
N       -1.08210000      -0.86320000      -0.23800000
C       -0.74690000      -2.26740000      -0.02840000
C        0.80190000      -2.29580000      -0.13300000
C        1.21640000      -0.84150000       0.06720000
O        2.32320000      -0.41090000       0.24130000
C       -1.22260000      -2.77170000       1.27590000
N       -1.61580000      -3.16070000       2.29030000
H        0.80430000       1.65190000       0.24090000
H       -2.03320000      -0.54440000      -0.12950000
H       -1.20730000      -2.88850000      -0.80350000
H        1.27630000      -2.95690000       0.59250000
H        1.10910000      -2.61310000      -1.13430000
