15
Properties=species:S:1:pos:R:3 gdb_25757=T pbc="F F F"
N       -0.08000000       1.34370000       0.10210000
C        0.04990000      -0.02380000       0.04170000
N        1.14840000      -0.70300000      -0.00330000
C       -1.20970000      -0.75230000       0.06640000
C       -1.35960000      -2.11570000       0.07760000
N       -0.45830000      -3.12560000       0.17090000
O       -2.68640000      -2.39530000       0.05370000
C       -3.29560000      -1.16140000       0.02910000
N       -2.47780000      -0.17070000       0.03980000
H        0.69930000       1.90690000      -0.19600000
H       -0.99970000       1.71580000      -0.08100000
H        1.96750000      -0.09670000      -0.01760000
H        0.48520000      -2.77260000       0.01800000
H       -0.69990000      -3.99570000      -0.27910000
H       -4.37240000      -1.16270000      -0.00180000
