18
Properties=species:S:1:pos:R:3 gdb_41663=T pbc="F F F"
C       -0.01350000       1.55310000       0.01980000
O        1.36570000       1.97050000       0.01430000
C        2.12990000       0.76860000      -0.07040000
C        1.89710000       0.09600000      -1.42480000
C        1.60490000      -1.34470000      -1.20140000
C        1.79970000      -1.64350000       0.27750000
C        1.36310000      -0.27040000       0.78590000
C        0.06080000       0.02480000       0.00470000
N        0.48310000      -0.38660000      -1.37120000
H       -0.50620000       1.94020000       0.92030000
H       -0.53030000       1.94010000      -0.86550000
H        3.16390000       0.99080000       0.19430000
H        2.24790000       0.52120000      -2.35680000
H        1.71680000      -2.09500000      -1.97460000
H        1.16170000      -2.45810000       0.63550000
H        2.83910000      -1.88340000       0.52420000
H        1.35730000      -0.08740000       1.85850000
H       -0.84880000      -0.49040000       0.31620000
