20
Properties=species:S:1:pos:R:3 gdb_15718=T pbc="F F F"
C       -0.00960000       1.54700000       0.01430000
C        0.04490000       0.01800000       0.07090000
C        0.65180000      -0.59010000      -1.18930000
O        1.99290000      -0.11140000      -1.37420000
C        2.86210000      -1.18750000      -1.71500000
C        1.94750000      -2.34000000      -2.14250000
C        0.74190000      -2.12530000      -1.21650000
O        1.00050000      -2.59300000       0.10130000
H        0.99330000       1.96160000      -0.11630000
H       -0.62690000       1.89380000      -0.82260000
H       -0.43480000       1.95900000       0.93460000
H        0.63070000      -0.31380000       0.93210000
H       -0.96500000      -0.39230000       0.19820000
H        0.05390000      -0.27550000      -2.06150000
H        3.54060000      -0.85670000      -2.50840000
H        3.46410000      -1.47470000      -0.84150000
H        1.64150000      -2.22840000      -3.18840000
H        2.40380000      -3.32730000      -2.02380000
H       -0.18360000      -2.56650000      -1.61170000
H        1.13780000      -3.54410000       0.05650000
