17
Properties=species:S:1:pos:R:3 gdb_39290=T pbc="F F F"
C        0.10230000       1.49470000       0.30860000
O        1.48320000       1.82990000       0.30190000
C        2.23550000       0.91260000      -0.48880000
O        3.34330000       0.43880000       0.21820000
C        2.94770000      -0.66400000       1.04210000
C        1.65700000      -1.22430000       0.42860000
O        0.45140000      -0.81370000       1.12310000
C        0.02640000       0.00690000       0.00890000
C        1.32270000      -0.30210000      -0.75730000
H       -0.31130000       1.74100000       1.29120000
H       -0.44720000       2.06280000      -0.45930000
H        2.62310000       1.42720000      -1.37370000
H        3.77150000      -1.38390000       1.04090000
H        2.75030000      -0.34050000       2.07080000
H        1.67170000      -2.30600000       0.26900000
H       -0.93360000      -0.32300000      -0.39780000
H        1.31280000      -0.67610000      -1.77750000
