19
Properties=species:S:1:pos:R:3 gdb_51570=T pbc="F F F"
O       -0.85520000       0.52510000       0.12470000
C       -0.17160000       1.51580000       0.11820000
C        1.26920000       1.56350000      -0.35820000
C        1.47450000       2.67080000      -1.37110000
O        1.42670000       4.01710000      -0.87950000
C        2.66190000       3.54180000      -1.43240000
C        3.84430000       3.44900000      -0.53220000
C        5.19840000       3.14900000      -1.13460000
C        4.90500000       4.52410000      -0.60090000
H       -0.56360000       2.49350000       0.47520000
H        1.89840000       1.74220000       0.52170000
H        1.53070000       0.58940000      -0.78270000
H        0.92030000       2.52670000      -2.30120000
H        2.89080000       3.97110000      -2.41170000
H        3.64690000       3.03870000       0.45190000
H        5.86910000       2.50530000      -0.57740000
H        5.25620000       3.02280000      -2.21080000
H        4.76120000       5.32770000      -1.31550000
H        5.37340000       4.83230000       0.32670000
