15
Properties=species:S:1:pos:R:3 gdb_49350=T pbc="F F F"
N       -0.33300000       1.05880000      -0.51650000
C       -0.29540000      -0.17190000      -0.21510000
N       -1.32180000      -0.78800000       0.50050000
C       -2.73270000      -0.73280000       0.15260000
C       -3.20610000      -0.12200000      -1.05560000
C       -3.66070000       0.38320000      -2.04600000
C       -1.94370000      -2.04340000       0.10300000
C       -1.63030000      -2.66510000      -1.15210000
C       -1.34280000      -3.21690000      -2.18060000
H        0.54020000       1.33580000      -0.96310000
H        0.53910000      -0.85900000      -0.39700000
H       -3.38480000      -0.60340000       1.01410000
H       -4.04240000       0.84190000      -2.92450000
H       -2.10320000      -2.73450000       0.92860000
H       -1.10130000      -3.69480000      -3.09800000
