16
Properties=species:S:1:pos:R:3 gdb_54484=T pbc="F F F"
N        0.51650000       0.16440000      -1.01160000
C       -0.06080000       0.19110000       0.21860000
O        0.42530000       0.71850000       1.20210000
C       -1.38150000      -0.53130000       0.28720000
C       -2.38250000      -0.17280000       1.37660000
C       -3.12590000      -1.47050000       1.60350000
C       -2.64000000      -2.47300000       0.86530000
C       -1.53820000      -1.97770000      -0.00780000
O       -1.95740000      -0.96290000      -0.95390000
H        1.36100000       0.69220000      -1.15560000
H       -0.02870000      -0.14490000      -1.79970000
H       -1.84260000       0.16990000       2.26610000
H       -3.04800000       0.64130000       1.06670000
H       -3.97120000      -1.54180000       2.27850000
H       -2.98730000      -3.49810000       0.86160000
H       -0.72280000      -2.60710000      -0.35010000
