15
Properties=species:S:1:pos:R:3 gdb_33609=T pbc="F F F"
N        0.09970000      -1.12730000       0.04890000
C        0.04210000       0.02880000       0.02200000
C       -0.02070000       1.44450000      -0.00240000
C       -0.04020000       2.49980000       1.07880000
C        1.03180000       2.52850000      -0.01270000
C        0.26040000       3.29090000      -1.10130000
C       -0.53620000       4.42330000      -0.43090000
C       -1.16210000       3.25330000       0.34750000
N       -0.92290000       2.32230000      -0.86500000
H        0.18070000       2.39130000       2.13160000
H        2.09090000       2.44240000       0.18660000
H        0.67640000       3.35930000      -2.10500000
H        0.00250000       5.19850000       0.11800000
H       -1.25450000       4.86700000      -1.12490000
H       -2.15930000       3.28460000       0.78300000
