19
Properties=species:S:1:pos:R:3 gdb_87739=T pbc="F F F"
C        0.08600000       1.50610000      -0.20790000
C        0.07500000       0.00700000      -0.00890000
C        1.36750000      -0.79670000      -0.06370000
C        0.63610000      -0.63570000       1.22850000
C        1.07100000       0.04990000       2.52660000
C        0.08360000      -0.93110000       3.23200000
N        0.01150000      -1.73320000       1.98460000
C        0.57020000      -1.65910000       4.40430000
N        0.95670000      -2.21480000       5.34100000
H        0.97710000       1.95930000       0.23920000
H        0.08990000       1.76100000      -1.27320000
H       -0.79170000       1.98120000       0.24510000
H       -0.79370000      -0.49810000      -0.42920000
H        1.34710000      -1.77520000      -0.53250000
H        2.29860000      -0.25280000      -0.19570000
H        2.11290000      -0.12980000       2.79580000
H        0.83830000       1.10920000       2.63830000
H       -0.85480000      -0.43170000       3.50340000
H       -0.93270000      -1.97940000       1.70360000
