17
Properties=species:S:1:pos:R:3 gdb_84062=T pbc="F F F"
C       -0.15380000       1.57790000       0.02150000
C       -0.00310000       0.04850000       0.00240000
C        0.76500000      -0.50360000      -1.17520000
C        1.83660000      -1.25580000      -0.86140000
C        2.79740000      -1.94490000      -1.77320000
C        1.96960000      -1.33440000       0.60910000
O        2.79660000      -1.93120000       1.25580000
C        0.81160000      -0.47580000       1.18900000
O        0.62250000      -0.25330000       2.35340000
H        0.82200000       2.06970000      -0.03860000
H       -0.76060000       1.92050000      -0.82190000
H       -0.63830000       1.89010000       0.95000000
H       -1.00700000      -0.39770000       0.04980000
H        0.45600000      -0.28950000      -2.19520000
H        3.81830000      -1.59030000      -1.59430000
H        2.80760000      -3.02220000      -1.57490000
H        2.54720000      -1.78230000      -2.82430000
