17
Properties=species:S:1:pos:R:3 gdb_22303=T pbc="F F F"
N        0.07540000       1.36810000      -0.16190000
C       -0.02730000       0.00220000      -0.00580000
C       -1.19370000      -0.67260000       0.09890000
C       -1.19260000      -2.11770000       0.08420000
C        0.13870000      -2.78040000      -0.18770000
O        1.19730000      -2.05940000       0.42720000
C        1.29020000      -0.74280000      -0.05430000
N       -2.19300000      -2.90840000       0.24530000
O       -3.39510000      -2.19510000       0.43500000
H        0.89320000       1.81030000       0.23180000
H       -0.77060000       1.89780000      -0.01010000
H       -2.14080000      -0.15370000       0.18070000
H        0.15470000      -3.79110000       0.22200000
H        0.31080000      -2.84170000      -1.27630000
H        1.67450000      -0.72100000      -1.09090000
H        2.03170000      -0.23440000       0.57510000
H       -4.03290000      -2.90820000       0.53630000
