18
Properties=species:S:1:pos:R:3 gdb_57941=T pbc="F F F"
C       -0.07000000       1.55100000      -0.01920000
C        0.00940000       0.01680000       0.03760000
O        0.83030000      -0.39300000       1.09440000
C       -1.38180000      -0.61690000       0.22730000
O       -1.64830000      -1.20850000       1.24760000
N       -2.24930000      -0.44600000      -0.84210000
C       -3.58570000      -0.88360000      -0.95290000
C       -4.20320000      -0.52940000      -2.29590000
O       -4.16510000      -1.46940000      -0.07890000
H        0.94360000       1.95490000      -0.07620000
H       -0.63020000       1.90860000      -0.89000000
H       -0.54480000       1.93860000       0.88670000
H        0.42340000      -0.35560000      -0.91490000
H        0.24350000      -0.87980000       1.69780000
H       -1.87230000       0.04340000      -1.64030000
H       -4.19320000       0.55400000      -2.45720000
H       -3.64580000      -0.99470000      -3.11610000
H       -5.23180000      -0.88700000      -2.31030000
