18
Properties=species:S:1:pos:R:3 gdb_88261=T pbc="F F F"
C        0.02770000       1.15670000       0.09090000
C        0.01030000      -0.34490000       0.25750000
C        0.70580000      -1.23420000      -0.72690000
N        1.18240000      -1.11520000       0.65190000
C        2.41970000      -0.57210000       0.99520000
N        2.54920000       0.50690000       1.65340000
C        3.64070000      -1.43400000       0.65600000
N        3.36690000      -2.70770000       0.26600000
O        4.76270000      -0.97650000       0.75100000
H        0.92810000       1.49780000      -0.42290000
H       -0.84560000       1.45820000      -0.49780000
H       -0.00990000       1.66000000       1.05910000
H       -0.90270000      -0.73680000       0.70360000
H        0.28690000      -2.19780000      -1.00550000
H        1.28960000      -0.74610000      -1.50430000
H        3.54810000       0.63600000       1.83820000
H        2.44430000      -3.08270000       0.40950000
H        4.14290000      -3.34260000       0.16540000
