15
Properties=species:S:1:pos:R:3 gdb_127663=T pbc="F F F"
C       -0.37980000       1.34080000      -0.01710000
N        0.05310000      -0.04740000       0.00010000
N        0.24770000      -0.63720000      -1.19920000
C        0.63350000      -1.87360000      -1.18620000
N        0.86440000      -2.64360000      -0.07030000
C        0.67310000      -2.06250000       1.06360000
O        0.86960000      -2.72250000       2.20940000
C        0.23610000      -0.66760000       1.22900000
N        0.02730000      -0.02910000       2.32140000
H        0.34540000       1.96550000       0.51220000
H       -0.46550000       1.64180000      -1.05930000
H       -1.33890000       1.44020000       0.49910000
H        0.78880000      -2.34400000      -2.14880000
H        1.15150000      -3.61830000       1.97140000
H        0.21060000      -0.63780000       3.11580000
