13
Properties=species:S:1:pos:R:3 gdb_4679=T pbc="F F F"
C        0.13300000       1.44070000       0.04980000
C       -0.06430000      -0.03020000      -0.01030000
C       -1.16280000      -0.82240000      -0.19250000
C       -0.70700000      -2.17010000      -0.15140000
C        0.64280000      -2.10690000       0.05380000
O        1.04300000      -0.80060000       0.14110000
C        1.62670000      -3.10840000       0.18190000
N        2.41990000      -3.94720000       0.28450000
H        0.82030000       1.78060000      -0.73230000
H       -0.82350000       1.94940000      -0.08490000
H        0.55560000       1.74490000       1.01340000
H       -2.17520000      -0.48070000      -0.33840000
H       -1.28920000      -3.07130000      -0.25790000
