20
Properties=species:S:1:pos:R:3 gdb_121061=T pbc="F F F"
C       -0.22630000       1.33970000      -0.42420000
O       -0.07100000      -0.03420000      -0.15700000
C        0.70540000      -0.70150000      -1.12710000
C        0.77760000      -2.18330000      -0.76470000
C       -0.62690000      -2.84120000      -0.80050000
N       -0.69070000      -3.38920000      -2.14410000
C        0.51920000      -3.56600000      -2.75970000
O        0.70530000      -4.09500000      -3.83330000
C        1.57570000      -2.97490000      -1.81740000
H        0.74200000       1.86420000      -0.44030000
H       -0.72580000       1.51390000      -1.39020000
H       -0.84220000       1.76090000       0.37400000
H        0.26210000      -0.57600000      -2.13060000
H        1.72290000      -0.27720000      -1.16550000
H        1.20910000      -2.26470000       0.23560000
H       -0.71730000      -3.62610000      -0.03680000
H       -1.41340000      -2.10360000      -0.62130000
H       -1.52110000      -3.80310000      -2.53690000
H        2.29040000      -2.37110000      -2.38260000
H        2.13550000      -3.80450000      -1.37290000
