16
Properties=species:S:1:pos:R:3 gdb_51059=T pbc="F F F"
O       -0.55940000       0.67680000       0.76410000
C        0.05890000       1.01300000      -0.21270000
C        1.32600000       1.85160000      -0.16730000
C        1.31670000       2.97400000      -1.15860000
C        2.42590000       3.94920000      -1.64340000
C        1.33300000       4.91020000      -2.13270000
C        1.84780000       3.81450000      -3.02800000
N        0.77430000       2.83340000      -2.56150000
C        0.26130000       3.91200000      -1.63420000
H       -0.25430000       0.71330000      -1.23430000
H        1.47070000       2.21600000       0.85470000
H        2.16410000       1.17820000      -0.40670000
H        3.42800000       4.16810000      -1.30350000
H        1.36430000       5.98540000      -2.23010000
H        2.29510000       3.81920000      -4.01370000
H       -0.78940000       4.00630000      -1.38510000
