15
Properties=species:S:1:pos:R:3 gdb_37507=T pbc="F F F"
O       -0.10270000       1.45090000      -0.04550000
C        1.32800000       1.48930000       0.02990000
C        1.42570000       0.17110000       0.80090000
C        0.05510000       0.00710000       0.01440000
C        0.67140000      -0.33800000      -1.37230000
N        1.19150000      -1.72100000      -1.33630000
C        2.20450000      -1.64930000      -0.57010000
N        2.54270000      -0.32950000      -0.08870000
C        1.89880000       0.57770000      -1.11960000
H        1.77440000       2.44750000       0.28090000
H        1.49190000       0.02450000       1.87550000
H       -0.81630000      -0.53720000       0.36970000
H        0.02180000      -0.13780000      -2.22060000
H        2.78420000      -2.50760000      -0.24470000
H        2.52020000       0.91700000      -1.94640000
