20
Properties=species:S:1:pos:R:3 gdb_87492=T pbc="F F F"
C       -0.11530000       1.58100000      -0.04210000
C       -0.06040000       0.07560000       0.03610000
N        1.27140000      -0.55710000      -0.22920000
C        0.66680000      -0.64510000       1.08330000
C        1.19070000      -0.28190000       2.48550000
O       -0.11800000      -0.74840000       3.01030000
C        0.29420000      -1.78990000       2.03930000
C        1.72370000      -1.73590000       2.66300000
C        2.96640000      -2.24560000       1.95190000
H        0.79830000       2.01930000       0.36800000
H       -0.21490000       1.91630000      -1.07990000
H       -0.96980000       1.96480000       0.52500000
H       -0.92490000      -0.43940000      -0.38190000
H        1.15890000      -1.42870000      -0.74240000
H        1.58320000       0.65870000       2.87170000
H       -0.37550000      -2.63960000       1.89460000
H        1.69060000      -2.03370000       3.71490000
H        3.04380000      -1.87490000       0.92830000
H        3.86470000      -1.92620000       2.49110000
H        2.97500000      -3.34090000       1.92840000
