19
Properties=species:S:1:pos:R:3 gdb_90526=T pbc="F F F"
C        0.42810000       1.62450000      -0.25980000
C        0.03600000       0.17100000      -0.03700000
C        0.81770000      -0.93740000      -0.80130000
N        1.09800000      -1.68240000       0.46990000
C        2.43650000      -1.33320000       1.04840000
C        1.80350000      -0.22260000       1.94700000
C        0.45720000      -0.56030000       1.26830000
C        3.07510000      -2.44090000       1.75730000
N        3.58890000      -3.29840000       2.33740000
H        1.50690000       1.78030000      -0.15350000
H        0.15040000       1.94670000      -1.26900000
H       -0.07810000       2.28720000       0.45050000
H       -1.04230000       0.06290000      -0.18650000
H        0.23250000      -1.53340000      -1.50660000
H        1.72300000      -0.59020000      -1.31520000
H        3.14340000      -0.95720000       0.29970000
H        1.83180000      -0.45200000       3.01260000
H        2.20280000       0.78120000       1.79300000
H       -0.35450000      -0.83580000       1.94640000
