15
Properties=species:S:1:pos:R:3 gdb_27648=T pbc="F F F"
C        0.03450000       1.43870000       0.09550000
C        0.00490000      -0.03740000      -0.05540000
N       -0.10580000      -0.73840000      -1.13370000
C       -0.07630000      -2.06180000      -0.68970000
C       -0.17100000      -3.17920000      -1.55770000
N       -0.24510000      -4.11370000      -2.23720000
C        0.05390000      -2.08890000       0.66830000
C        0.14020000      -3.16700000       1.67940000
O        0.10640000      -0.79290000       1.08200000
H        0.97170000       1.76680000       0.55630000
H       -0.05920000       1.89500000      -0.88990000
H       -0.78640000       1.78410000       0.73190000
H        1.08220000      -3.11280000       2.23560000
H       -0.67770000      -3.09530000       2.40450000
H        0.08310000      -4.13820000       1.18410000
