16
Properties=species:S:1:pos:R:3 gdb_127828=T pbc="F F F"
C       -0.08010000       1.41130000      -0.00040000
N       -0.10800000      -0.03760000       0.00990000
C        0.54810000      -0.63700000      -0.90780000
N        1.30710000      -0.05980000      -1.90590000
C        0.57600000      -2.11790000      -0.94970000
N        0.05020000      -2.90250000      -0.01890000
N        0.31910000      -4.13310000      -0.50310000
C        0.98080000      -4.05390000      -1.67470000
N        1.16310000      -2.78950000      -1.99110000
H        0.94460000       1.81370000       0.04990000
H       -0.55090000       1.83630000      -0.90410000
H       -0.63410000       1.79310000       0.86080000
H        1.09890000       0.89130000      -2.15950000
H        1.58340000      -0.67240000      -2.65850000
H        0.02540000      -4.94620000       0.01380000
H        1.29760000      -4.91620000      -2.24140000
