16
Properties=species:S:1:pos:R:3 gdb_8805=T pbc="F F F"
C        0.00130000       1.43430000       0.00880000
N       -0.09360000      -0.00880000       0.00280000
C       -1.25940000      -0.67740000       0.00980000
O       -2.38170000      -0.19080000       0.02190000
C       -1.03200000      -2.20450000       0.00070000
O        0.09030000      -2.69110000      -0.01140000
N       -2.19780000      -2.87310000       0.00770000
C       -2.29270000      -4.31620000       0.00170000
H        0.53610000       1.79210000       0.89520000
H        0.52070000       1.80060000      -0.88340000
H       -1.01410000       1.83360000       0.01950000
H        0.72970000      -0.59630000      -0.00710000
H       -3.02100000      -2.28560000       0.01750000
H       -2.82760000      -4.67400000      -0.88480000
H       -1.27730000      -4.71550000      -0.00900000
H       -2.81210000      -4.68240000       0.89390000
