18
Properties=species:S:1:pos:R:3 gdb_72026=T pbc="F F F"
O       -0.06680000       1.38810000      -0.00340000
C        0.01930000       0.00080000      -0.05100000
C        0.82450000      -0.70300000      -1.15840000
C        0.63890000      -2.10070000      -0.54380000
C        1.33060000      -1.93430000       0.82560000
C        0.36760000      -0.83370000       1.29090000
C       -1.00130000      -1.51140000       1.13250000
C       -1.31770000      -0.75050000      -0.09480000
N       -0.84630000      -2.15290000      -0.19960000
H        0.82450000       1.74740000       0.05650000
H        0.35490000      -0.58220000      -2.13880000
H        1.87690000      -0.40420000      -1.22000000
H        0.91850000      -2.96010000      -1.15090000
H        1.28110000      -2.83080000       1.45090000
H        2.37550000      -1.62280000       0.73120000
H        0.58080000      -0.25290000       2.18630000
H       -1.63390000      -1.97610000       1.88060000
H       -2.25010000      -0.44390000      -0.55620000
