16
Properties=species:S:1:pos:R:3 gdb_43991=T pbc="F F F"
O       -0.01040000       0.00990000       0.03720000
C        0.00360000       1.20480000       0.01000000
N       -1.02530000       2.16450000       0.08680000
C       -0.10490000       3.29740000      -0.02740000
C        0.94870000       3.29780000       1.04770000
C        1.05880000       2.32220000      -0.11550000
O        1.88510000       2.63110000      -1.17650000
C        1.06580000       3.35060000      -2.12690000
C        0.01830000       4.14430000      -1.28360000
H       -1.82100000       2.11420000       0.71350000
H        1.68240000       4.09710000       1.02020000
H        0.69650000       2.93510000       2.03910000
H        1.72960000       3.97810000      -2.72680000
H        0.55980000       2.63720000      -2.79090000
H       -0.93530000       4.23440000      -1.80760000
H        0.37610000       5.15130000      -1.05310000
