18
Properties=species:S:1:pos:R:3 gdb_65173=T pbc="F F F"
C        0.47910000      -0.89890000      -0.37640000
C       -0.05580000       0.51100000      -0.43160000
C        0.82290000       1.66000000      -0.16280000
O        0.47060000       1.31980000      -1.50420000
C       -1.53440000       0.72370000      -0.23710000
N       -2.42670000      -0.43150000      -0.30140000
C       -2.31230000       0.30240000       0.97850000
C       -1.74220000      -0.37480000       2.11110000
C       -1.29320000      -0.89910000       3.09570000
H        1.55240000      -0.89300000      -0.58090000
H        0.30330000      -1.34470000       0.60550000
H       -0.02270000      -1.52260000      -1.12030000
H        0.40090000       2.59330000       0.21020000
H        1.86250000       1.48440000       0.11080000
H       -1.86820000       1.65520000      -0.69170000
H       -3.30130000      -0.19690000      -0.76240000
H       -3.13440000       0.96680000       1.24000000
H       -0.89380000      -1.37490000       3.95720000
