21
Properties=species:S:1:pos:R:3 gdb_90486=T pbc="F F F"
C       -0.25620000       1.54250000       0.01090000
C        0.07570000       0.06410000       0.02740000
O        1.07950000      -0.35290000      -0.95210000
C        1.74330000      -1.13730000       0.04590000
C        2.36120000      -0.26460000       1.08970000
C        2.99790000       1.05660000       0.78760000
C        3.28570000       2.04770000       1.89030000
C        4.42090000       1.31430000       1.22050000
C        0.86940000      -0.59190000       1.15730000
H       -0.61190000       1.83610000      -0.98230000
H       -1.05930000       1.74470000       0.72820000
H        0.60280000       2.16110000       0.27350000
H       -0.83650000      -0.51890000      -0.16260000
H        2.05130000      -2.14050000      -0.22780000
H        2.89200000      -0.84820000       1.84200000
H        2.71410000       1.46770000      -0.17440000
H        3.15880000       3.10500000       1.68340000
H        3.02710000       1.76110000       2.90460000
H        4.92660000       0.53870000       1.78730000
H        5.07070000       1.86640000       0.55050000
H        0.43220000      -1.09360000       2.01070000
