17
Properties=species:S:1:pos:R:3 gdb_51625=T pbc="F F F"
O       -0.92200000       0.46110000      -0.38610000
C       -0.46680000       1.54650000      -0.19110000
O        0.84060000       1.75530000       0.06060000
C        1.29090000       3.08570000       0.28080000
C        2.12820000       3.29320000       1.56910000
C        3.11840000       4.08390000       0.70780000
C        3.70380000       5.40240000       0.95050000
O        4.49870000       4.20490000       0.96310000
C        2.50550000       3.52110000      -0.57880000
H       -1.05700000       2.48430000      -0.19510000
H        0.44900000       3.78210000       0.20680000
H        1.65300000       3.79180000       2.41620000
H        2.56080000       2.34370000       1.89680000
H        3.89110000       6.07590000       0.11510000
H        3.57420000       5.88450000       1.91870000
H        3.05700000       2.64340000      -0.92750000
H        2.32620000       4.19840000      -1.41610000
