18
Properties=species:S:1:pos:R:3 gdb_41556=T pbc="F F F"
C       -0.01850000       1.56680000      -0.04300000
O        1.41050000       1.60200000      -0.25780000
C        1.43910000       0.16340000      -0.50620000
C        2.25330000      -0.74350000       0.39130000
C        2.19250000      -0.61880000       1.91270000
C        0.97960000       0.19650000       2.31830000
N        0.11850000      -0.60710000       1.35790000
C        1.26640000      -1.56220000       1.19730000
C       -0.00910000       0.03320000       0.03000000
H       -0.33320000       2.12590000       0.84410000
H       -0.56390000       1.94720000      -0.91620000
H        1.62540000      -0.03580000      -1.56820000
H        3.14270000      -1.22890000       0.00600000
H        3.05950000      -0.84840000       2.52100000
H        0.65470000      -0.01810000       3.34040000
H        1.01560000       1.27500000       2.16700000
H        1.14480000      -2.63740000       1.20200000
H       -0.74640000      -0.50690000      -0.56800000
