18
Properties=species:S:1:pos:R:3 gdb_66457=T pbc="F F F"
C        0.04150000       1.53010000      -0.03190000
C       -0.02470000       0.03810000      -0.09750000
C        0.57170000      -0.90240000      -1.17550000
C        0.83030000      -1.82720000      -0.01170000
N        0.58390000      -0.81340000       1.05500000
C       -0.82050000      -1.11290000       1.52960000
C       -1.29760000      -0.87250000       0.08640000
C       -0.49980000      -1.88900000      -0.77290000
O       -0.95120000      -2.96000000      -1.50740000
H        1.08280000       1.86880000      -0.03260000
H       -0.46790000       1.97860000      -0.89180000
H       -0.43570000       1.90370000       0.88030000
H        1.11380000      -0.73800000      -2.09680000
H        1.52290000      -2.65430000       0.08500000
H       -0.95780000      -2.10260000       1.97840000
H       -1.13840000      -0.34030000       2.23510000
H       -2.31010000      -0.60150000      -0.21300000
H       -1.08390000      -3.70850000      -0.91430000
