19
Properties=species:S:1:pos:R:3 gdb_88700=T pbc="F F F"
C       -0.01440000       1.61080000      -0.03020000
C       -0.00280000       0.09850000      -0.03450000
C        1.28570000      -0.66400000      -0.23890000
C        0.59880000      -0.69760000       1.10090000
N        1.22280000       0.03060000       2.17580000
C        0.62820000      -0.05950000       3.49330000
C        1.94560000      -0.72450000       3.20980000
C        2.00140000      -2.16590000       3.17020000
N        2.06900000      -3.32000000       3.12850000
H        0.87040000       2.00780000       0.47230000
H       -0.03270000       1.99990000      -1.05380000
H       -0.89710000       2.00000000       0.48950000
H       -0.88780000      -0.35700000      -0.47140000
H        1.28570000      -1.56670000      -0.83880000
H        2.19760000      -0.07920000      -0.29520000
H        0.09430000      -1.62370000       1.37990000
H        0.61560000       0.85250000       4.08330000
H       -0.22920000      -0.71610000       3.62880000
H        2.86490000      -0.25900000       3.55380000
