20
Properties=species:S:1:pos:R:3 gdb_55823=T pbc="F F F"
N        0.24640000       0.08750000       1.05120000
C       -0.14110000       0.05380000      -0.25770000
O        0.24130000       0.86860000      -1.07430000
C       -1.14040000      -1.05060000      -0.61460000
C       -0.97840000      -2.36000000       0.13430000
C       -1.52290000      -2.66700000       1.51390000
C       -2.90710000      -2.03870000       1.73580000
C       -3.43860000      -2.80160000       0.47950000
C       -2.04460000      -3.41190000       0.27690000
H        0.92740000       0.77650000       1.32450000
H        0.00930000      -0.65250000       1.68850000
H       -2.14080000      -0.63140000      -0.45900000
H       -1.04100000      -1.20980000      -1.69190000
H        0.00180000      -2.81120000      -0.01340000
H       -0.88160000      -3.04430000       2.30350000
H       -3.38100000      -2.38640000       2.65590000
H       -2.95570000      -0.94500000       1.71800000
H       -4.18650000      -3.55130000       0.74510000
H       -3.83440000      -2.20040000      -0.34500000
H       -1.85620000      -4.43680000      -0.02030000
