18
Properties=species:S:1:pos:R:3 gdb_58729=T pbc="F F F"
C        0.00560000       1.53890000      -0.07440000
C       -0.00260000       0.01190000       0.03240000
O        0.57510000      -0.43690000       1.25560000
C       -1.38190000      -0.55640000      -0.10130000
C       -1.91780000      -2.01380000      -0.12290000
C       -3.24550000      -1.48870000      -0.69000000
C       -3.01850000      -1.56080000       0.79680000
N       -2.48240000      -0.13110000       0.85450000
C       -2.67300000      -0.05090000      -0.64150000
H        1.01150000       1.91110000       0.13370000
H       -0.29000000       1.86880000      -1.07550000
H       -0.68660000       1.97680000       0.65240000
H        0.63480000      -0.41330000      -0.75300000
H       -0.05500000      -0.20290000       1.94880000
H       -1.44730000      -2.97730000      -0.25390000
H       -3.96430000      -1.98380000      -1.32620000
H       -3.55550000      -2.05060000       1.59900000
H       -2.93440000       0.87570000      -1.13920000
