15
Properties=species:S:1:pos:R:3 gdb_29159=T pbc="F F F"
N        0.05300000       1.40880000       0.39760000
C        0.00350000       0.04820000       0.04600000
C       -1.15110000      -0.61840000      -0.16060000
O       -1.18510000      -1.97480000      -0.40180000
C       -0.04970000      -2.70480000      -0.48960000
N       -0.01920000      -3.96040000      -0.72850000
C        1.22070000      -2.00660000      -0.29080000
O        2.30970000      -2.78090000      -0.38500000
C        1.24600000      -0.68260000      -0.02300000
H        0.80020000       1.90620000      -0.07090000
H       -0.82220000       1.89350000       0.24590000
H       -2.14520000      -0.19630000      -0.14060000
H       -0.94540000      -4.36270000      -0.84900000
H        1.95750000      -3.67470000      -0.57280000
H        2.18720000      -0.17380000       0.15130000
