22
Properties=species:S:1:pos:R:3 gdb_110585=T pbc="F F F"
C       -0.12600000       1.61670000       0.06480000
C       -0.11420000       0.08950000       0.01640000
N        0.67400000      -0.46030000       1.11970000
C        2.15350000      -0.52360000       0.91300000
C        2.29090000      -1.73220000       1.88360000
C        3.14640000      -2.53520000       0.88610000
C        2.14730000      -1.78930000      -0.01930000
C        0.98200000      -1.92840000       1.04690000
C       -0.06070000      -2.99980000       1.17220000
H        0.88050000       2.02550000      -0.07510000
H       -0.76390000       2.02720000      -0.72410000
H       -0.49760000       1.96440000       1.03290000
H       -1.13930000      -0.28600000       0.12660000
H        0.24080000      -0.24700000      -0.97460000
H        2.79370000       0.35770000       0.85050000
H        2.34300000      -1.67010000       2.97070000
H        4.19760000      -2.24430000       0.79840000
H        3.05810000      -3.62530000       0.92560000
H        2.06770000      -1.82260000      -1.10610000
H        0.40380000      -3.99140000       1.16900000
H       -0.61890000      -2.88420000       2.10690000
H       -0.77400000      -2.96140000       0.34190000
