13
Properties=species:S:1:pos:R:3 gdb_16049=T pbc="F F F"
O       -0.01830000       1.39370000       0.05160000
C       -0.06010000       0.01200000       0.05790000
C       -1.34510000      -0.78890000       0.07510000
C       -2.37240000      -0.08210000      -0.79660000
O       -1.41720000       0.04300000      -1.89950000
C       -0.45820000      -0.74460000      -1.18110000
C        0.30290000      -1.72950000      -1.87600000
N        0.93820000      -2.53260000      -2.41510000
H       -0.36990000       1.68180000      -0.80260000
H        0.74800000      -0.42900000       0.63370000
H       -1.52970000      -1.60970000       0.75440000
H       -3.21150000      -0.71270000      -1.10110000
H       -2.72870000       0.89290000      -0.45090000
