21
Properties=species:S:1:pos:R:3 gdb_68313=T pbc="F F F"
C        0.04780000       1.35580000       0.11700000
C        0.05180000      -0.14870000       0.06060000
C        0.64830000      -1.05410000      -1.06430000
C        0.06030000      -2.03910000      -0.01580000
C        0.71730000      -1.14040000       1.06980000
C       -1.19060000      -1.10930000       0.02210000
C       -2.19890000      -1.18100000       1.17670000
C       -3.11200000      -0.04200000       1.18700000
C       -3.85360000       0.90430000       1.17190000
H        1.07050000       1.74920000       0.13040000
H       -0.46560000       1.77910000      -0.75310000
H       -0.46770000       1.71700000       1.01260000
H        0.15360000      -1.01590000      -2.03950000
H        1.73730000      -1.04590000      -1.16570000
H        0.06670000      -3.12900000      -0.06300000
H        1.81100000      -1.13530000       1.09240000
H        0.31760000      -1.18100000       2.08490000
H       -1.74130000      -1.06580000      -0.92450000
H       -2.78140000      -2.10690000       1.07550000
H       -1.69650000      -1.24910000       2.14730000
H       -4.51380000       1.73570000       1.16860000
