19
Properties=species:S:1:pos:R:3 gdb_109650=T pbc="F F F"
C        0.05830000       1.56510000       0.22710000
C        0.00800000       0.07050000      -0.00600000
C        0.47420000      -0.60250000      -1.27210000
C        1.10020000       0.15010000      -2.43640000
O        2.26140000      -0.49870000      -2.91960000
C        1.31960000      -0.72480000      -0.01310000
O        2.53080000      -0.03230000       0.00270000
C        1.37410000      -1.99480000       0.72810000
O        2.37090000      -2.33570000       1.32920000
H        1.01810000       1.98890000      -0.07150000
H       -0.73820000       2.07570000      -0.32400000
H       -0.07820000       1.78210000       1.29100000
H       -0.82100000      -0.42920000       0.49050000
H       -0.05910000      -1.50490000      -1.56070000
H        0.39050000       0.18010000      -3.26950000
H        1.31180000       1.18840000      -2.15300000
H        2.90050000      -0.45350000      -2.19740000
H        3.08640000      -0.53700000       0.62080000
H        0.45150000      -2.60930000       0.71860000
