12
Properties=species:S:1:pos:R:3 gdb_3663=T pbc="F F F"
C       -0.03870000       1.50960000       0.07210000
C       -0.02800000       0.02070000      -0.02250000
C       -0.01000000      -0.81070000      -1.12330000
N       -0.04340000      -0.53690000      -2.46230000
O       -0.01480000      -2.07210000      -0.73900000
N       -0.04020000      -2.02480000       0.75350000
N       -0.04620000      -0.81410000       1.06010000
H        0.78630000       1.96490000      -0.48980000
H       -0.97270000       1.94550000      -0.30230000
H        0.07200000       1.80520000       1.11740000
H        0.28720000       0.37740000      -2.73020000
H        0.27760000      -1.27980000      -3.06480000
