16
Properties=species:S:1:pos:R:3 gdb_33688=T pbc="F F F"
C       -0.01610000      -1.19410000      -0.05430000
C       -0.00630000       0.00900000      -0.00570000
C        0.02480000       1.42290000       0.04990000
C       -1.05210000       2.32680000       0.67700000
C       -0.40550000       3.43590000       1.47890000
C        0.82400000       3.63070000       0.62070000
C        1.25660000       2.35390000       0.00360000
N        0.53610000       3.36860000      -0.82880000
C       -0.68970000       2.49000000      -0.76760000
H       -0.02740000      -2.25460000      -0.09940000
H       -1.99650000       1.87250000       0.94590000
H       -1.03100000       4.33400000       1.51970000
H       -0.15110000       3.13530000       2.50030000
H        1.53100000       4.43240000       0.80040000
H        2.27230000       2.04620000      -0.21230000
H       -1.34810000       2.40580000      -1.62090000
