22
Properties=species:S:1:pos:R:3 gdb_123031=T pbc="F F F"
C       -0.42920000       1.24140000       0.33290000
N        0.05360000      -0.13100000       0.27510000
C        1.41090000      -0.36420000      -0.19400000
C        1.05200000      -0.59220000       1.23680000
C        1.62660000       0.29070000       2.31380000
O        0.67990000       0.39450000       3.36230000
C        1.15180000       1.10260000       4.49440000
C        0.07150000       0.99180000       5.55910000
O       -0.19020000      -0.35740000       5.88730000
H        0.35800000       2.00040000       0.46510000
H       -0.95130000       1.46580000      -0.60250000
H       -1.13880000       1.33680000       1.15950000
H        1.55430000      -1.20260000      -0.87050000
H        2.03080000       0.50580000      -0.41390000
H        0.87790000      -1.61360000       1.57240000
H        2.56250000      -0.15610000       2.68920000
H        1.87940000       1.28990000       1.92860000
H        2.08890000       0.65280000       4.86010000
H        1.35120000       2.15810000       4.24570000
H        0.40170000       1.49270000       6.47510000
H       -0.83630000       1.50430000       5.20200000
H       -0.31630000      -0.80900000       5.04430000
