17
Properties=species:S:1:pos:R:3 gdb_11800=T pbc="F F F"
C       -0.45550000       1.36570000      -0.01040000
C        0.04700000      -0.07230000      -0.00430000
C        1.33600000      -0.38640000      -0.79580000
O        1.72820000      -0.05670000      -1.87720000
C        1.94720000      -1.17640000       0.37470000
C        0.77370000      -0.66420000       1.22690000
C        0.81650000      -0.09740000       2.59080000
N        0.18780000      -1.41200000       2.33050000
H        0.32410000       2.05750000       0.32270000
H       -0.75290000       1.65590000      -1.02220000
H       -1.32370000       1.48960000       0.64550000
H       -0.74590000      -0.75640000      -0.34080000
H        1.92690000      -2.25960000       0.21240000
H        2.95870000      -0.88250000       0.66750000
H        1.73550000      -0.13900000       3.16980000
H        0.17650000       0.75160000       2.81800000
H       -0.82550000      -1.31460000       2.32440000
