15
Properties=species:S:1:pos:R:3 gdb_11742=T pbc="F F F"
O        0.19090000       1.39180000       0.10930000
C        0.04580000      -0.01060000      -0.05400000
C       -1.39490000      -0.43300000       0.00720000
C       -2.05830000      -0.95340000       1.21300000
N       -1.77460000      -1.92020000       0.10310000
C       -2.80310000      -1.65570000      -0.89840000
O       -3.55880000      -2.42120000      -1.40500000
C       -2.42750000      -0.17760000      -1.09400000
H       -0.10750000       1.61920000       0.99620000
H        0.46000000      -0.23960000      -1.04130000
H        0.62680000      -0.57950000       0.68680000
H       -1.45480000      -1.16240000       2.09120000
H       -3.09400000      -0.69950000       1.42620000
H       -3.20150000       0.57050000      -0.90840000
H       -1.99060000      -0.00350000      -2.08090000
