21
Properties=species:S:1:pos:R:3 gdb_102386=T pbc="F F F"
C       -0.09820000       1.53430000       0.04380000
C        0.02490000       0.00920000       0.02870000
C        0.75610000      -0.55620000      -1.20870000
C        0.80540000      -2.10340000      -1.15640000
O        1.32930000      -2.64600000      -2.34390000
O        0.14660000      -0.15760000      -2.45730000
C       -1.23480000      -0.43550000      -2.62410000
C        2.12400000      -0.02750000      -1.27680000
C        3.24930000       0.39200000      -1.28870000
H        0.88910000       2.00350000       0.03590000
H       -0.64470000       1.90030000      -0.82980000
H       -0.62830000       1.86650000       0.94110000
H        0.57600000      -0.33050000       0.91270000
H       -0.96610000      -0.45460000       0.09070000
H        1.44530000      -2.41520000      -0.32490000
H       -0.20940000      -2.48260000      -0.95240000
H        1.08110000      -2.03430000      -3.04920000
H       -1.46910000      -1.50350000      -2.52810000
H       -1.86340000       0.12750000      -1.92360000
H       -1.48050000      -0.11760000      -3.64030000
H        4.24630000       0.75740000      -1.31480000
