21
Properties=species:S:1:pos:R:3 gdb_102179=T pbc="F F F"
C       -1.42430000      -0.36720000       0.09740000
C        0.09830000      -0.20460000       0.05950000
C        0.74040000      -0.53730000      -1.30460000
C        2.24420000      -0.16510000      -1.31790000
C        2.48200000       1.24740000      -1.03150000
N        2.66330000       2.36820000      -0.81510000
C        0.48460000      -1.98890000      -1.69770000
C        1.44870000      -2.87260000      -2.40010000
N        1.09750000      -3.12610000      -0.98880000
H       -1.90660000       0.23790000      -0.67860000
H       -1.73050000      -1.40730000      -0.04600000
H       -1.81910000      -0.03940000       1.06340000
H        0.35360000       0.82840000       0.31950000
H        0.55450000      -0.84020000       0.83010000
H        0.25390000       0.08590000      -2.06720000
H        2.80030000      -0.75780000      -0.58060000
H        2.68030000      -0.38230000      -2.29760000
H       -0.56620000      -2.17070000      -1.91200000
H        1.08160000      -3.61590000      -3.10240000
H        2.44520000      -2.50630000      -2.62770000
H        1.85270000      -2.80500000      -0.38660000
