18
Properties=species:S:1:pos:R:3 gdb_32764=T pbc="F F F"
C       -0.11290000       1.38800000      -0.06070000
O       -0.22350000      -0.01380000      -0.16170000
C        0.83980000      -0.58520000      -0.90350000
C        0.63030000      -2.05420000      -1.01490000
C       -0.36700000      -2.84390000      -1.49340000
C       -1.66810000      -2.45040000      -2.10670000
N       -0.00290000      -4.17860000      -1.31800000
C        1.16070000      -4.12400000      -0.75980000
O        1.62210000      -2.87690000      -0.53340000
H        0.80860000       1.68790000       0.46260000
H       -0.11750000       1.87150000      -1.05060000
H       -0.97470000       1.74050000       0.51010000
H        0.88510000      -0.11970000      -1.90310000
H        1.80980000      -0.39980000      -0.41640000
H       -1.70280000      -2.71440000      -3.16960000
H       -2.49450000      -2.97430000      -1.61630000
H       -1.83220000      -1.37610000      -2.00180000
H        1.79940000      -4.94000000      -0.45950000
