19
Properties=species:S:1:pos:R:3 gdb_6207=T pbc="F F F"
C        0.01000000       1.47260000      -0.01080000
C       -0.05450000      -0.01640000      -0.04380000
N       -1.06740000      -0.73740000       0.21330000
C       -0.65910000      -2.15010000       0.05080000
C       -0.83750000      -2.88490000       1.38530000
C       -1.51340000      -2.80090000      -1.04420000
C        0.84240000      -2.04310000      -0.36330000
O        1.11460000      -0.62850000      -0.39020000
H        0.77270000       1.80300000       0.70140000
H        0.29420000       1.86130000      -0.99380000
H       -0.96010000       1.87620000       0.27680000
H       -1.88520000      -2.85680000       1.69690000
H       -0.52960000      -3.93300000       1.29810000
H       -0.23800000      -2.41420000       2.17040000
H       -1.39670000      -2.27020000      -1.99400000
H       -1.22350000      -3.84670000      -1.19580000
H       -2.57110000      -2.77160000      -0.76810000
H        1.52170000      -2.51110000       0.35610000
H        1.04470000      -2.45200000      -1.35820000
