15
Properties=species:S:1:pos:R:3 gdb_44304=T pbc="F F F"
O       -0.04090000      -0.03340000      -0.19070000
C       -0.00690000       1.15120000      -0.03500000
O       -1.14130000       1.91130000       0.13730000
C       -0.73260000       3.26730000       0.34500000
C        0.01930000       3.51790000       1.65360000
C        1.19430000       4.14480000       0.93320000
C        1.32200000       2.73720000       1.45350000
C        1.17600000       2.10270000       0.04410000
C        0.62600000       3.49330000      -0.37540000
H       -1.56170000       3.93220000       0.11140000
H       -0.37890000       3.73350000       2.63520000
H        1.75690000       5.04410000       1.12830000
H        1.89590000       2.36220000       2.28910000
H        2.09240000       1.73390000      -0.40950000
H        0.68670000       3.86340000      -1.39510000
