23
Properties=species:S:1:pos:R:3 gdb_60010=T pbc="F F F"
C       -1.73660000       1.69090000      -1.23510000
C       -1.80960000       0.16810000      -1.35910000
O       -0.95580000      -0.30570000      -2.39940000
C       -1.51290000      -0.53240000      -0.02460000
C       -1.56440000      -2.07010000      -0.06230000
C       -0.91970000      -2.67010000       1.19240000
C       -3.01980000      -2.57560000      -0.23330000
C       -3.12230000      -4.01980000      -0.40590000
C       -3.19040000      -5.21100000      -0.55530000
H       -1.92870000       2.15970000      -2.20390000
H       -2.46940000       2.06680000      -0.51370000
H       -0.74240000       2.00570000      -0.89310000
H       -2.81600000      -0.10210000      -1.70100000
H       -0.05400000      -0.04820000      -2.17570000
H       -0.50810000      -0.22400000       0.30050000
H       -2.20430000      -0.15510000       0.74190000
H       -0.99870000      -2.39820000      -0.94140000
H       -1.43530000      -2.33320000       2.10030000
H       -0.96020000      -3.76240000       1.17040000
H        0.12960000      -2.36890000       1.27590000
H       -3.60940000      -2.27090000       0.64330000
H       -3.48360000      -2.08760000      -1.09830000
H       -3.26110000      -6.26180000      -0.68910000
