22
Properties=species:S:1:pos:R:3 gdb_33183=T pbc="F F F"
C        0.06100000       1.56540000      -0.18510000
C        0.01260000       0.04650000       0.00120000
C       -1.41140000      -0.51730000      -0.01540000
C       -1.46180000      -2.04700000       0.17120000
C       -2.84430000      -2.61890000       0.16640000
C       -3.62060000      -3.12860000       1.18520000
C       -4.87670000      -3.51080000       0.63450000
C       -4.83650000      -3.22510000      -0.70870000
N       -3.60290000      -2.68500000      -0.98110000
H        1.09010000       1.93790000      -0.16950000
H       -0.38560000       1.86180000      -1.14090000
H       -0.49140000       2.07920000       0.60930000
H        0.60490000      -0.43920000      -0.78620000
H        0.49590000      -0.22240000       0.95000000
H       -2.00920000      -0.04480000       0.77420000
H       -1.89900000      -0.24770000      -0.96260000
H       -0.84940000      -2.52120000      -0.61000000
H       -0.98940000      -2.30880000       1.12430000
H       -3.31290000      -3.21690000       2.21660000
H       -5.70950000      -3.94860000       1.16320000
H       -5.56810000      -3.36110000      -1.48900000
H       -3.29230000      -2.38800000      -1.88970000
