21
Properties=species:S:1:pos:R:3 gdb_67618=T pbc="F F F"
C       -0.08580000       1.51460000       0.05630000
C        0.03110000       0.02180000       0.02290000
C        0.10930000      -0.84020000      -1.22570000
C        1.15880000      -1.92610000      -1.08110000
C        1.03510000      -2.15990000       0.41270000
C        0.66830000      -0.86780000       1.12560000
C       -0.38860000      -1.93130000       0.89120000
C       -1.14150000      -2.79240000       1.85810000
C       -1.01510000      -1.04940000      -0.22360000
H        0.89760000       1.99580000      -0.01780000
H       -0.69620000       1.87900000      -0.77680000
H       -0.55350000       1.86090000       0.98550000
H       -0.11990000      -0.38950000      -2.18510000
H        0.91840000      -2.82150000      -1.66650000
H        2.15930000      -1.58260000      -1.36980000
H        1.64800000      -2.88930000       0.93080000
H        1.11370000      -0.52690000       2.05160000
H       -1.92850000      -2.22760000       2.37180000
H       -1.62020000      -3.64010000       1.35180000
H       -0.47290000      -3.19910000       2.62420000
H       -2.06910000      -0.94840000      -0.44990000
