16
Properties=species:S:1:pos:R:3 gdb_33050=T pbc="F F F"
C        0.01750000       1.43130000       0.14150000
C       -0.04800000      -0.04000000      -0.21190000
O       -1.28940000      -0.56140000       0.32830000
C       -1.52190000      -1.84600000       0.11280000
C       -2.58470000      -2.50430000      -0.34170000
O       -2.32230000      -3.87130000      -0.25380000
C       -1.05070000      -4.00550000       0.23480000
N       -0.39780000      -5.05700000       0.44740000
O       -0.54310000      -2.75880000       0.48030000
H        0.94290000       1.86400000      -0.24930000
H       -0.82880000       1.97320000      -0.28900000
H        0.00190000       1.56790000       1.22610000
H       -0.04910000      -0.19790000      -1.29760000
H        0.78850000      -0.59770000       0.21950000
H       -3.54280000      -2.19570000      -0.71470000
H       -0.95020000      -5.87350000       0.19910000
