23
Properties=species:S:1:pos:R:3 gdb_98833=T pbc="F F F"
C        0.29970000       1.43220000       0.49960000
C        0.32810000      -0.04700000       0.12560000
C        0.41800000      -0.30390000      -1.37290000
O        0.35700000       0.59910000      -2.18060000
C        0.62390000      -1.74250000      -1.79780000
C        0.32520000      -2.11720000      -3.26930000
C        1.64510000      -2.92860000      -3.32000000
C        2.12140000      -2.21650000      -2.02010000
C        3.14510000      -1.10960000      -2.25440000
H        1.21280000       1.93620000       0.17120000
H       -0.53930000       1.93760000       0.01540000
H        0.20580000       1.55830000       1.58190000
H        1.16410000      -0.57090000       0.61040000
H       -0.57240000      -0.56400000       0.48830000
H        0.13290000      -2.41350000      -1.08630000
H       -0.60480000      -2.65790000      -3.45770000
H        0.34870000      -1.22440000      -3.89760000
H        1.48570000      -4.00000000      -3.17110000
H        2.27780000      -2.79380000      -4.20160000
H        2.48130000      -2.88800000      -1.23510000
H        2.79950000      -0.39250000      -3.00500000
H        3.35770000      -0.55020000      -1.33660000
H        4.08850000      -1.54160000      -2.60560000
