19
Properties=species:S:1:pos:R:3 gdb_22966=T pbc="F F F"
O        0.21030000       1.34690000      -0.26300000
C        0.05880000      -0.02640000       0.05970000
C       -1.32900000      -0.56830000      -0.28560000
C       -1.47120000      -2.04950000       0.04560000
N       -1.49000000      -2.37060000       1.51280000
C       -2.73800000      -3.17990000       1.37530000
C       -2.84710000      -2.67890000      -0.04680000
N       -3.70050000      -2.67850000      -0.97790000
O       -4.86420000      -3.37040000      -0.59580000
H       -0.40500000       1.84460000       0.28480000
H        0.82300000      -0.55140000      -0.52580000
H        0.27290000      -0.21600000       1.12270000
H       -2.09040000      -0.01210000       0.27580000
H       -1.52840000      -0.41420000      -1.35210000
H       -0.72200000      -2.63100000      -0.51440000
H       -0.69110000      -2.91370000       1.81910000
H       -2.60830000      -4.26860000       1.44030000
H       -3.54300000      -2.88690000       2.05790000
H       -5.41970000      -3.28200000      -1.37790000
