25
Properties=species:S:1:pos:R:3 gdb_115380=T pbc="F F F"
C       -0.01560000       1.59570000      -0.00400000
C       -0.04520000       0.06580000       0.03580000
C        0.69740000      -0.52400000       1.23130000
C        0.58670000      -2.05070000       1.32010000
C        1.46480000      -2.59830000       2.45630000
C        2.90810000      -2.05900000       2.37310000
C        3.71760000      -2.68570000       1.22920000
C        2.84220000      -0.53030000       2.23670000
O        2.06400000      -0.13030000       1.12150000
H        1.01510000       1.95770000      -0.02260000
H       -0.53210000       1.97760000      -0.88990000
H       -0.50590000       2.02320000       0.87800000
H       -1.08150000      -0.29290000       0.06630000
H        0.40270000      -0.34120000      -0.87940000
H        0.28380000      -0.08870000       2.16170000
H       -0.46030000      -2.33400000       1.47930000
H        0.89030000      -2.48170000       0.35850000
H        1.03030000      -2.29340000       3.41800000
H        1.46440000      -3.69410000       2.44770000
H        3.41650000      -2.28450000       3.31990000
H        3.31910000      -2.39220000       0.25430000
H        4.76220000      -2.35860000       1.26800000
H        3.70710000      -3.77910000       1.28840000
H        2.42680000      -0.09070000       3.16030000
H        3.83870000      -0.10380000       2.08070000
