16
Properties=species:S:1:pos:R:3 gdb_53871=T pbc="F F F"
C        0.47570000       1.32900000       0.12740000
C        0.28890000      -0.16550000       0.03190000
O        0.25440000      -0.90220000       0.98580000
C        0.13890000      -0.73270000      -1.38070000
N        0.17570000       0.04600000      -2.38130000
O       -0.02140000      -2.07280000      -1.34160000
C       -0.17500000      -2.76530000      -2.56720000
C       -0.33320000      -4.24410000      -2.24070000
O       -0.48100000      -5.08090000      -3.08830000
H        1.36290000       1.63710000      -0.43330000
H       -0.37060000       1.84720000      -0.33250000
H        0.57060000       1.60900000       1.17670000
H        0.06650000      -0.42870000      -3.27700000
H       -1.06250000      -2.42100000      -3.11640000
H        0.70040000      -2.63200000      -3.21820000
H       -0.29970000      -4.47440000      -1.15520000
