21
Properties=species:S:1:pos:R:3 gdb_95876=T pbc="F F F"
C        0.07150000       1.58870000       0.02190000
C        0.03010000       0.07250000      -0.08370000
C        0.77070000      -0.47170000      -1.30850000
C        0.80550000      -2.00560000      -1.28030000
C        1.40940000      -2.48980000       0.04430000
C        0.69850000      -1.82320000       1.24290000
O        0.62400000      -0.42560000       1.12740000
C       -0.64340000      -2.49270000       1.52170000
O       -1.71480000      -1.94670000       1.53530000
H        1.10600000       1.94210000       0.08050000
H       -0.40420000       2.04590000      -0.85100000
H       -0.45640000       1.92050000       0.91960000
H       -1.01550000      -0.26020000      -0.12220000
H        0.27970000      -0.11160000      -2.21950000
H        1.79510000      -0.07580000      -1.31130000
H       -0.21560000      -2.39510000      -1.38940000
H        1.38280000      -2.39880000      -2.12340000
H        1.35450000      -3.58080000       0.13490000
H        2.46950000      -2.21700000       0.08860000
H        1.29640000      -2.01610000       2.14740000
H       -0.54710000      -3.58520000       1.73670000
