12
Properties=species:S:1:pos:R:3 gdb_132930=T pbc="F F F"
F        0.03700000      -0.01730000       0.00380000
C       -0.02110000       1.31400000       0.01080000
C       -1.20080000       1.97880000       0.02930000
N       -1.20930000       3.34200000       0.03570000
C       -0.06850000       4.17380000       0.02470000
O       -0.19450000       5.38510000       0.03210000
C        1.17650000       3.42760000       0.00510000
C        1.18720000       2.07110000      -0.00140000
F        2.32330000       1.38820000      -0.01940000
H       -2.15190000       1.46350000       0.03930000
H       -2.08730000       3.84150000       0.04950000
H        2.10010000       3.99030000      -0.00430000
