18
Properties=species:S:1:pos:R:3 gdb_35134=T pbc="F F F"
N       -0.32240000      -1.15580000      -0.10270000
C       -0.07410000      -0.02710000      -0.05780000
C        0.28110000       1.39360000      -0.00200000
C       -0.12850000       2.09240000       1.32950000
C        1.36050000       1.94250000       1.75420000
N        1.70260000       1.65890000       0.33410000
C        2.05360000       3.14650000       2.34220000
C        3.45010000       3.47300000       1.97070000
N        2.33410000       4.31430000       1.49770000
H       -0.04950000       1.87220000      -0.92920000
H       -0.41730000       3.13150000       1.16650000
H       -0.87780000       1.58590000       1.93520000
H        1.49590000       1.07600000       2.41590000
H        2.33870000       0.88630000       0.16910000
H        1.71260000       3.39740000       3.34570000
H        4.11190000       3.94050000       2.69380000
H        3.94380000       2.83290000       1.24390000
H        2.14190000       4.04710000       0.53180000
