13
Properties=species:S:1:pos:R:3 gdb_3300=T pbc="F F F"
C        0.02510000      -1.24280000      -0.09080000
C        0.01860000      -0.04270000      -0.01990000
C        0.00800000       1.40300000       0.06450000
C       -0.23840000       2.09310000       1.46980000
C        1.10900000       2.80390000       1.30000000
O        2.10690000       1.78390000       1.17570000
C        1.36860000       2.14260000       0.01260000
H        0.03870000      -2.30290000      -0.14900000
H       -0.67850000       1.82560000      -0.67640000
H       -1.10340000       2.75900000       1.45170000
H       -0.29860000       1.42070000       2.32670000
H        1.42810000       3.76830000       1.67610000
H        1.92600000       2.45140000      -0.86400000
