15
Properties=species:S:1:pos:R:3 gdb_25665=T pbc="F F F"
C       -0.16050000       1.40140000      -0.00010000
C       -0.04780000      -0.04690000       0.00720000
C        0.05320000      -1.24920000       0.01190000
C        0.17230000      -2.64890000       0.01760000
N        1.22860000      -3.39240000       0.15060000
C        0.77170000      -4.69610000       0.09380000
C       -0.58200000      -4.67930000      -0.08080000
N       -1.55360000      -5.63870000      -0.28330000
O       -0.98960000      -3.39070000      -0.13330000
H        0.75200000       1.86220000      -0.39370000
H       -0.99660000       1.72780000      -0.62820000
H       -0.32570000       1.79680000       1.00860000
H        1.43370000      -5.54220000       0.17960000
H       -1.28460000      -6.55500000       0.04620000
H       -2.46280000      -5.37140000       0.07090000
