14
Properties=species:S:1:pos:R:3 gdb_130708=T pbc="F F F"
O       -0.20420000      -0.10510000       0.12510000
C       -0.05240000       1.09230000       0.11810000
N       -1.01840000       2.10300000       0.07330000
N       -0.54360000       3.40730000       0.21460000
C        0.73200000       3.20500000       0.20610000
C        2.08690000       3.64100000       0.69240000
C        2.38840000       2.81190000       1.94000000
C        2.46060000       2.15070000       0.59550000
N        1.10960000       1.88860000       0.06690000
H       -2.00670000       1.94150000      -0.01440000
H        2.65870000       4.50910000       0.40120000
H        3.34630000       3.02500000       2.40640000
H        1.59140000       2.55770000       2.63090000
H        3.32970000       1.67550000       0.16440000
