19
Properties=species:S:1:pos:R:3 gdb_61922=T pbc="F F F"
C        0.05240000       1.48110000      -0.00780000
C        0.04820000      -0.05820000       0.06910000
N       -1.27560000      -0.67180000       0.14220000
C       -2.07460000      -0.30660000       1.29920000
C       -3.29730000      -1.11610000       1.36200000
N       -4.27100000      -1.73550000       1.40640000
C        0.77930000      -0.63140000      -1.13560000
C        0.50850000      -1.96220000      -1.68540000
O       -0.00190000      -0.77980000      -2.32470000
H        1.07740000       1.86380000      -0.05110000
H       -0.47370000       1.81990000      -0.90660000
H       -0.42740000       1.93370000       0.86480000
H        0.60200000      -0.36630000       0.96830000
H       -1.77600000      -0.49940000      -0.72390000
H       -1.49060000      -0.50320000       2.20750000
H       -2.37650000       0.75380000       1.34810000
H        1.76600000      -0.19720000      -1.30420000
H        1.29060000      -2.48010000      -2.23780000
H       -0.24240000      -2.58650000      -1.21030000
