21
Properties=species:S:1:pos:R:3 gdb_88158=T pbc="F F F"
C        0.24200000       1.59120000       0.26870000
C       -0.00660000       0.10240000       0.17680000
C        1.05820000      -0.81620000      -0.40870000
C        0.76330000      -0.86400000       1.04940000
O        1.74840000      -0.35860000       1.92290000
C        1.19110000      -0.52050000       3.20610000
O        0.40780000      -1.69720000       3.18180000
C        0.16620000      -2.04510000       1.80900000
C       -1.31110000      -2.33050000       1.59540000
H        1.26410000       1.79280000       0.59910000
H        0.09170000       2.07640000      -0.70170000
H       -0.43900000       2.06270000       0.98580000
H       -1.03240000      -0.17720000      -0.04790000
H        0.74920000      -1.65320000      -1.02720000
H        2.00310000      -0.36610000      -0.69560000
H        2.00760000      -0.62380000       3.92900000
H        0.55810000       0.34380000       3.47230000
H        0.75140000      -2.94900000       1.58240000
H       -1.91680000      -1.45140000       1.83120000
H       -1.50480000      -2.62680000       0.55870000
H       -1.62710000      -3.15150000       2.24430000
