21
Properties=species:S:1:pos:R:3 gdb_60230=T pbc="F F F"
C        0.00120000       1.53670000      -0.01790000
C        0.01590000       0.00350000       0.04220000
C        0.90410000      -0.48320000       1.19600000
C       -1.42580000      -0.53420000       0.14620000
C       -1.54930000      -2.04840000      -0.03250000
C       -2.94990000      -2.65700000      -0.24730000
O       -2.55300000      -3.13370000      -1.57440000
C       -1.29870000      -2.59090000      -1.44500000
O       -0.41960000      -2.59580000      -2.24670000
H        1.01530000       1.93540000      -0.12160000
H       -0.58920000       1.89870000      -0.86610000
H       -0.43060000       1.96310000       0.89600000
H        0.43990000      -0.37260000      -0.89720000
H        0.50260000      -0.15990000       2.16440000
H        0.99910000      -1.57320000       1.21820000
H        1.91490000      -0.07330000       1.10430000
H       -1.85050000      -0.25700000       1.12100000
H       -2.04680000      -0.04120000      -0.61290000
H       -0.95930000      -2.58820000       0.71260000
H       -3.22910000      -3.49350000       0.39630000
H       -3.77190000      -1.94170000      -0.32740000
