17
Properties=species:S:1:pos:R:3 gdb_65750=T pbc="F F F"
C       -0.00120000       1.64840000       0.03080000
C       -0.04580000       0.12350000      -0.00670000
C        0.70860000      -0.51580000      -1.20960000
C        1.91170000      -0.88150000      -0.28890000
C        1.01210000      -0.56090000       0.91070000
O        1.02690000      -0.83250000       2.07530000
O       -1.38770000      -0.35820000       0.09870000
C       -1.99900000      -0.31870000       1.30950000
O       -3.13200000      -0.66970000       1.44670000
H        1.01760000       2.01480000      -0.12770000
H       -0.64210000       2.04960000      -0.76000000
H       -0.35150000       2.03010000       0.99410000
H        0.17600000      -1.39620000      -1.57110000
H        0.91530000       0.15540000      -2.04360000
H        2.29320000      -1.90380000      -0.32660000
H        2.75800000      -0.19190000      -0.36550000
H       -1.34680000       0.04230000       2.12020000
