17
Properties=species:S:1:pos:R:3 gdb_99956=T pbc="F F F"
C       -0.51480000       1.71530000      -0.06680000
C        0.04050000       0.28900000      -0.06280000
O        0.87900000       0.06350000       1.06130000
C       -1.09720000      -0.76090000      -0.05560000
O       -1.67830000      -0.69370000       1.24590000
C        0.94090000       0.04910000      -1.27670000
O        0.95360000       0.73570000      -2.26980000
C        1.89130000      -1.16130000      -1.26830000
O        1.58830000      -2.25610000      -0.87260000
H        0.30010000       2.43150000       0.05930000
H       -1.02390000       1.93140000      -1.00920000
H       -1.22050000       1.83410000       0.75890000
H        0.28730000      -0.25110000       1.75980000
H       -1.83510000      -0.52000000      -0.83220000
H       -0.67730000      -1.75260000      -0.24550000
H       -2.05950000      -1.55110000       1.45290000
H        2.85030000      -0.95300000      -1.78860000
