18
Properties=species:S:1:pos:R:3 gdb_69275=T pbc="F F F"
C        0.01350000       1.49960000      -0.06780000
C       -0.01980000      -0.01010000       0.02650000
C       -1.25530000      -0.68880000      -0.57850000
O       -1.87790000      -1.64030000       0.26270000
C       -0.98690000      -2.62130000       0.75520000
C        0.05700000      -1.98550000       1.67810000
O        0.37590000      -2.48650000       2.73180000
C        0.62610000      -0.69140000       1.19920000
N        1.28030000      -0.66150000      -0.13740000
H        0.95550000       1.88480000       0.32880000
H       -0.06890000       1.82270000      -1.11190000
H       -0.81630000       1.94300000       0.49220000
H       -2.02270000       0.06090000      -0.78730000
H       -0.97630000      -1.15640000      -1.53990000
H       -1.56890000      -3.33550000       1.34020000
H       -0.49710000      -3.17160000      -0.06930000
H        1.13740000      -0.11240000       1.96300000
H        1.18360000      -1.56430000      -0.59960000
