21
Properties=species:S:1:pos:R:3 gdb_104311=T pbc="F F F"
C       -0.04850000       1.53530000       0.11820000
C        0.02460000       0.00940000      -0.00900000
C        0.76010000      -0.49270000      -1.25900000
O        0.05930000      -0.14420000      -2.45770000
C        2.25320000      -0.06350000      -1.33720000
C        2.97340000      -1.17800000      -2.13220000
C        2.15150000      -2.41420000      -1.83260000
O        1.82570000      -2.56180000      -0.43780000
C        0.84110000      -2.01290000      -1.31870000
H        0.94720000       1.98730000       0.17050000
H       -0.58120000       1.98900000      -0.72620000
H       -0.59010000       1.82300000       1.02380000
H        0.52540000      -0.41350000       0.86920000
H       -0.99130000      -0.40340000      -0.02750000
H       -0.00110000       0.81550000      -2.49600000
H        2.35790000       0.91770000      -1.80810000
H        2.66990000       0.00540000      -0.32950000
H        2.93560000      -0.98510000      -3.21010000
H        4.02480000      -1.28460000      -1.84830000
H        2.31070000      -3.34480000      -2.37080000
H       -0.06940000      -2.59120000      -1.45390000
