20
Properties=species:S:1:pos:R:3 gdb_55356=T pbc="F F F"
C        0.21590000       1.11270000       0.73870000
C        0.00300000       0.04930000      -0.32170000
O        0.85400000      -0.21660000      -1.13990000
C       -1.33590000      -0.69100000      -0.27310000
C       -1.72810000      -1.36910000      -1.60170000
C       -2.42980000      -2.67780000      -1.17350000
N       -1.95000000      -3.04180000       0.17350000
C       -0.48640000      -3.05270000       0.30760000
C       -1.27050000      -1.86030000       0.72410000
H        1.24480000       1.47290000       0.70960000
H       -0.46870000       1.95080000       0.56050000
H       -0.01760000       0.72160000       1.73510000
H       -2.11300000       0.00150000       0.07090000
H       -2.37600000      -0.73390000      -2.21040000
H       -0.82250000      -1.55710000      -2.18190000
H       -3.51300000      -2.53360000      -1.09820000
H       -2.25510000      -3.50280000      -1.87100000
H       -0.10880000      -3.74130000       1.05750000
H        0.13180000      -2.96790000      -0.58250000
H       -1.43360000      -1.64580000       1.77650000
