10
Properties=species:S:1:pos:R:3 gdb_21984=T pbc="F F F"
O       -0.08380000       0.01820000       0.00390000
N       -0.02310000       1.24340000       0.00700000
O        0.99210000       1.91700000       0.00240000
C       -1.29950000       1.92470000       0.01720000
N       -1.39260000       3.25070000       0.02150000
N       -2.69640000       3.43050000       0.03050000
N       -3.46340000       2.34130000       0.03230000
C       -2.57790000       1.34850000       0.02390000
H       -3.09700000       4.35670000       0.03570000
H       -2.86770000       0.31220000       0.02280000
