19
Properties=species:S:1:pos:R:3 gdb_63485=T pbc="F F F"
C        0.02370000       1.48220000      -0.24610000
C        0.04620000      -0.00270000       0.04690000
O       -1.12270000      -0.66230000      -0.37670000
C        1.34360000      -0.79150000      -0.01510000
C        0.63420000      -0.55180000       1.31820000
N        1.14580000       0.35090000       2.32310000
C       -0.07410000      -1.74030000       1.96220000
C        0.86640000      -2.58660000       2.69790000
N        1.63190000      -3.23100000       3.27680000
H        0.95180000       1.98300000       0.04160000
H       -0.10350000       1.64440000      -1.32300000
H       -0.81040000       1.96550000       0.27100000
H       -1.10970000      -0.69730000      -1.33980000
H        1.30320000      -1.78590000      -0.44820000
H        2.26710000      -0.25060000      -0.19630000
H        1.89050000      -0.10730000       2.84370000
H        1.55380000       1.17860000       1.90470000
H       -0.83280000      -1.37190000       2.66090000
H       -0.58430000      -2.33440000       1.20220000
