21
Properties=species:S:1:pos:R:3 gdb_72409=T pbc="F F F"
O       -0.04970000       1.35340000       0.02390000
C        0.01500000      -0.05210000       0.00380000
C        0.65050000      -0.66090000      -1.27370000
C        0.09120000      -2.11420000      -1.28420000
C       -0.79460000      -2.15590000      -0.01130000
O       -1.78500000      -3.15550000      -0.00870000
C        0.13230000      -2.14810000       1.23260000
C        0.69160000      -0.69490000       1.24310000
C       -1.36550000      -0.72870000       0.01720000
H        0.85080000       1.69490000       0.01370000
H        0.31590000      -0.09340000      -2.14650000
H        1.74470000      -0.62000000      -1.24950000
H       -0.53320000      -2.30010000      -2.16250000
H        0.87570000      -2.87830000      -1.26560000
H       -1.34570000      -4.01240000      -0.02770000
H       -0.46340000      -2.35780000       2.12540000
H        0.91530000      -2.91120000       1.16800000
H        1.78450000      -0.65300000       1.18410000
H        0.38600000      -0.15120000       2.14130000
H       -1.93990000      -0.51410000       0.92220000
H       -1.96900000      -0.49010000      -0.86240000
