21
Properties=species:S:1:pos:R:3 gdb_40413=T pbc="F F F"
C       -0.03330000       1.50810000      -0.11590000
C        1.31340000       0.83140000      -0.03540000
C        0.04840000       0.00840000       0.03180000
C       -0.38140000      -0.67580000       1.29220000
C       -0.36220000      -2.19370000       1.37530000
C       -1.68310000      -1.46640000       1.41100000
C       -2.30440000      -1.15850000       2.77220000
C       -1.26070000      -0.28850000       3.44190000
C       -0.24070000      -0.01070000       2.62710000
H       -0.36410000       2.07620000       0.74730000
H       -0.35070000       1.91940000      -1.06790000
H        1.91620000       0.77040000      -0.93500000
H        1.89290000       0.95790000       0.87280000
H       -0.17710000      -0.56540000      -0.86340000
H       -0.13000000      -2.73730000       0.46420000
H        0.01440000      -2.65380000       2.28370000
H       -2.33530000      -1.56980000       0.55120000
H       -3.26130000      -0.62860000       2.67080000
H       -2.51700000      -2.06700000       3.35140000
H       -1.34220000       0.03280000       4.47440000
H        0.62170000       0.59070000       2.89330000
