19
Properties=species:S:1:pos:R:3 gdb_88720=T pbc="F F F"
O       -0.14180000       1.48420000      -0.00840000
C       -0.04710000       0.08850000      -0.05550000
C       -0.49320000      -0.72240000       1.13540000
C       -1.34050000      -0.67430000      -0.12410000
C       -2.64280000       0.05590000      -0.12640000
C       -3.53870000       0.02630000      -1.32970000
C       -3.96540000      -0.70830000      -0.06460000
C       -3.99010000      -2.14090000      -0.03810000
C       -4.01600000      -3.34390000      -0.00910000
H        0.53510000       1.80550000       0.59600000
H        0.78870000      -0.28910000      -0.64480000
H        0.03140000      -1.63870000       1.38250000
H       -0.85990000      -0.16180000       1.98950000
H       -1.32870000      -1.57060000      -0.73620000
H       -2.62990000       0.98510000       0.43220000
H       -4.08680000       0.92190000      -1.59950000
H       -3.23730000      -0.59080000      -2.16890000
H       -4.75140000      -0.23400000       0.51610000
H       -4.04270000      -4.40470000       0.01610000
