20
Properties=species:S:1:pos:R:3 gdb_99293=T pbc="F F F"
C        0.66720000       1.15340000       0.19870000
C       -0.05080000      -0.08790000      -0.32470000
C        0.66260000      -0.73460000      -1.49320000
O        1.68190000      -0.32670000      -1.99860000
O       -0.00010000      -1.83360000      -1.90710000
C        0.55090000      -2.53590000      -3.04560000
C        1.57650000      -3.55870000      -2.63850000
C        2.70590000      -3.84480000      -3.56210000
N        2.94420000      -3.14490000      -2.29540000
H        1.67700000       0.90810000       0.53690000
H        0.75900000       1.91190000      -0.58270000
H        0.11660000       1.58620000       1.03840000
H       -0.15930000      -0.85030000       0.45570000
H       -1.07290000       0.14320000      -0.64780000
H       -0.31340000      -3.01520000      -3.51330000
H        0.98250000      -1.80650000      -3.73640000
H        1.19110000      -4.36520000      -2.01770000
H        3.11260000      -4.85030000      -3.62180000
H        2.75710000      -3.28250000      -4.49190000
H        3.03570000      -2.14310000      -2.45090000
