20
Properties=species:S:1:pos:R:3 gdb_110338=T pbc="F F F"
C       -0.98810000       1.20950000      -0.29570000
C       -0.10130000       0.00560000       0.04530000
C        0.55890000      -0.58100000      -1.18810000
C        1.01700000      -1.99510000      -1.35570000
N       -0.09970000      -1.37980000      -2.22470000
C       -1.11940000      -2.27270000      -1.54660000
C       -1.79950000      -3.21030000      -2.53300000
C        0.02580000      -2.95200000      -0.76640000
O        0.11930000      -3.98100000      -0.15910000
H       -0.41550000       1.98740000      -0.81210000
H       -1.81410000       0.92010000      -0.95340000
H       -1.41420000       1.65160000       0.60940000
H        0.70100000       0.31760000       0.72490000
H       -0.67660000      -0.74630000       0.59200000
H        1.24420000       0.12410000      -1.66050000
H        2.00190000      -2.24670000      -1.73480000
H       -1.86250000      -1.72090000      -0.96460000
H       -1.06130000      -3.73770000      -3.14380000
H       -2.39210000      -3.95220000      -1.99030000
H       -2.45890000      -2.64930000      -3.20090000
