14
Properties=species:S:1:pos:R:3 gdb_11106=T pbc="F F F"
C        0.30250000       1.44300000      -0.01660000
N        0.38540000      -0.00940000       0.05530000
C        0.47230000      -0.68360000      -0.98570000
C        0.57190000      -2.15900000      -1.30690000
C        0.57360000      -1.66570000      -2.77890000
O        0.49920000      -0.28470000      -2.33070000
C        1.77570000      -1.93290000      -3.56370000
N        2.72170000      -2.16790000      -4.18370000
H        1.13310000       1.87230000       0.55290000
H        0.32750000       1.84340000      -1.03610000
H       -0.62270000       1.76880000       0.47020000
H        1.49100000      -2.64280000      -0.97560000
H       -0.29080000      -2.76100000      -1.02040000
H       -0.31360000      -1.93190000      -3.35970000
