21
Properties=species:S:1:pos:R:3 gdb_84379=T pbc="F F F"
C       -0.49320000       1.43190000      -0.02120000
C       -0.00420000      -0.02460000      -0.05510000
C        0.96080000      -0.28310000      -1.18850000
C        2.11530000      -0.81360000      -0.79210000
C        2.18170000      -1.00540000       0.70100000
O        3.30200000      -0.35010000       1.29530000
C        0.79670000      -0.50420000       1.17720000
C        0.70010000       0.16510000       2.52750000
C        0.11450000      -1.20540000       2.32500000
H        0.33910000       2.12490000       0.13870000
H       -0.97640000       1.69670000      -0.96790000
H       -1.22620000       1.59220000       0.77580000
H       -0.88950000      -0.66420000      -0.18620000
H        0.70010000      -0.04960000      -2.21650000
H        2.94920000      -1.07910000      -1.43240000
H        2.33260000      -2.05800000       0.96990000
H        3.25050000       0.57920000       1.04360000
H        1.62190000       0.24780000       3.09220000
H        0.02020000       1.00150000       2.64520000
H       -0.96690000      -1.29960000       2.29160000
H        0.62140000      -2.05280000       2.77680000
