18
Properties=species:S:1:pos:R:3 gdb_29833=T pbc="F F F"
C        0.00430000       1.43600000       0.03120000
N        0.01330000      -0.01190000       0.02080000
C        0.00340000      -0.78960000      -1.10470000
C        0.01550000      -2.11940000      -0.72160000
C        0.03350000      -2.12620000       0.71000000
C        0.03180000      -0.82220000       1.14250000
C        0.04630000      -0.26230000       2.52600000
C        0.01090000      -3.24100000      -1.58250000
C        0.00730000      -4.20680000      -2.30370000
H        0.89380000       1.83420000       0.53040000
H       -0.00520000       1.79780000      -0.99800000
H       -0.88270000       1.82350000       0.54320000
H       -0.01150000      -0.34850000      -2.08820000
H        0.04640000      -3.00290000       1.33880000
H        0.92870000       0.36150000       2.71730000
H       -0.83650000       0.35410000       2.73880000
H        0.05850000      -1.07990000       3.24990000
H        0.00400000      -5.05500000      -2.94140000
