20
Properties=species:S:1:pos:R:3 gdb_28865=T pbc="F F F"
C       -0.09290000       1.52530000       0.06370000
C       -0.03040000       0.01500000       0.00890000
C        0.03620000      -0.66840000      -1.21650000
C        0.06880000       0.05170000      -2.54320000
C        0.08420000      -2.07740000      -1.21790000
N        0.20200000      -2.77310000      -2.42870000
C        0.07690000      -2.78090000      -0.00810000
C        0.02120000      -2.09560000       1.19620000
C       -0.03680000      -0.70630000       1.20600000
H        0.79730000       1.98990000      -0.37630000
H       -0.96000000       1.92190000      -0.47660000
H       -0.16390000       1.86920000       1.09850000
H        0.90310000      -0.30170000      -3.16120000
H       -0.85010000      -0.11630000      -3.12440000
H        0.17540000       1.13020000      -2.42690000
H       -0.26110000      -2.34220000      -3.21570000
H       -0.04050000      -3.75130000      -2.36140000
H        0.11620000      -3.86650000      -0.02290000
H        0.01560000      -2.64770000       2.13050000
H       -0.08610000      -0.17160000       2.14890000
