19
Properties=species:S:1:pos:R:3 gdb_120309=T pbc="F F F"
C        0.11570000       1.47190000       0.23730000
C        0.52820000       0.01240000       0.17180000
O        0.05660000      -0.63540000       1.35070000
C        0.39050000      -1.97780000       1.41830000
C        1.81110000      -2.47110000       1.60180000
O        2.58860000      -1.51800000       2.31950000
C        1.71140000      -1.62940000       3.47470000
C        0.78990000      -2.59490000       2.72620000
O        0.19420000      -3.70140000       3.29390000
H        0.54740000       1.95150000       1.12030000
H        0.46410000       2.00530000      -0.65220000
H       -0.97270000       1.56450000       0.29340000
H        0.09880000      -0.47270000      -0.71940000
H        1.62050000      -0.08620000       0.11340000
H       -0.20650000      -2.64950000       0.79410000
H        2.32280000      -3.18100000       0.96200000
H        2.23150000      -2.11450000       4.30720000
H        1.29770000      -0.66330000       3.77750000
H       -0.74140000      -3.51030000       3.42370000
