20
Properties=species:S:1:pos:R:3 gdb_22193=T pbc="F F F"
C        0.26550000       1.49010000      -0.04780000
C       -0.07190000      -0.00210000      -0.10040000
C        0.97280000      -0.80290000      -0.88060000
C        0.71490000      -2.28230000      -0.97990000
C        1.68490000      -3.18530000      -1.73210000
C        2.83710000      -2.52020000      -2.32320000
C        3.79540000      -1.99120000      -2.81900000
N       -0.33200000      -2.75220000      -0.41940000
O       -0.43860000      -4.14380000      -0.59620000
H        1.23290000       1.66460000       0.43710000
H        0.31890000       1.92390000      -1.05280000
H       -0.49150000       2.04630000       0.51350000
H       -0.15320000      -0.40610000       0.91420000
H       -1.05600000      -0.14990000      -0.55780000
H        1.07140000      -0.40660000      -1.90120000
H        1.96900000      -0.66120000      -0.43790000
H        2.01560000      -3.97360000      -1.04330000
H        1.11820000      -3.71910000      -2.50610000
H        4.64250000      -1.52480000      -3.25760000
H       -1.25630000      -4.34450000      -0.12950000
