22
Properties=species:S:1:pos:R:3 gdb_107123=T pbc="F F F"
C        0.05380000       1.44680000       0.02840000
C       -0.05130000      -0.07660000      -0.12280000
C       -1.46210000      -0.56190000       0.03010000
C       -2.11110000      -0.92180000       1.33760000
C       -2.06410000      -1.93640000       0.22110000
C       -3.01700000      -1.59640000      -0.94490000
C       -3.20760000      -2.54640000      -2.08950000
C       -3.81280000      -0.36960000      -0.73690000
N       -2.39190000      -0.23600000      -1.13610000
H        1.07950000       1.79020000      -0.13680000
H       -0.59370000       1.94530000      -0.69920000
H       -0.25470000       1.76610000       1.02940000
H        0.31750000      -0.37190000      -1.11260000
H        0.58250000      -0.57900000       0.61800000
H       -1.38600000      -1.11610000       2.12320000
H       -3.03430000      -0.49510000       1.71390000
H       -1.57460000      -2.89760000       0.31750000
H       -3.87110000      -3.37170000      -1.80440000
H       -3.64650000      -2.03400000      -2.95010000
H       -2.25020000      -2.97800000      -2.40290000
H       -4.47960000      -0.07950000      -1.54490000
H       -4.15180000      -0.04520000       0.24000000
