19
Properties=species:S:1:pos:R:3 gdb_99673=T pbc="F F F"
C        0.19470000       1.41600000       0.09320000
O       -0.12320000       0.04890000      -0.07440000
C        0.54820000      -0.57420000      -1.15570000
C        1.99930000      -0.65330000      -0.95510000
C        3.18500000      -0.72370000      -0.77110000
C       -0.07780000      -1.96830000      -1.28250000
C       -1.54280000      -2.01610000      -1.75820000
C       -0.97260000      -2.80090000      -2.95730000
O        0.37870000      -2.65720000      -2.46190000
H        1.26040000       1.56080000       0.31300000
H       -0.06120000       2.00140000      -0.80350000
H       -0.39940000       1.77790000       0.93530000
H        0.35080000      -0.02470000      -2.09250000
H        4.23410000      -0.79100000      -0.61920000
H        0.13650000      -2.53480000      -0.36850000
H       -2.23010000      -2.56190000      -1.11180000
H       -1.97230000      -1.04120000      -1.99460000
H       -1.27160000      -3.85430000      -3.01670000
H       -1.09570000      -2.34190000      -3.94520000
