18
Properties=species:S:1:pos:R:3 gdb_69638=T pbc="F F F"
C       -0.03570000       1.52060000       0.02840000
C        0.08410000       0.03050000       0.01250000
N       -0.87440000      -0.87280000       0.69840000
C        0.57660000      -0.93570000       1.01620000
C        1.29070000      -1.77800000      -0.06650000
C        0.35760000      -2.20610000      -1.18610000
C        0.75080000      -0.77660000      -1.14370000
C        2.67860000      -2.20510000       0.03690000
O        3.35090000      -2.11920000       1.04200000
H        0.90780000       1.99260000      -0.26660000
H       -0.81340000       1.86520000      -0.66350000
H       -0.28970000       1.87970000       1.03110000
H       -1.31640000      -0.32980000       1.43980000
H        0.96040000      -0.78270000       2.01540000
H        0.83530000      -2.79420000      -1.96410000
H       -0.64820000      -2.50260000      -0.91860000
H        1.35580000      -0.30680000      -1.90870000
H        3.10160000      -2.61530000      -0.90990000
