15
Properties=species:S:1:pos:R:3 gdb_129375=T pbc="F F F"
N       -0.15430000       1.31320000       0.02840000
C        0.06500000      -0.03790000      -0.05260000
N        1.25470000      -0.51230000      -0.09130000
C       -1.16930000      -0.85510000      -0.05150000
C       -1.39260000      -2.19120000       0.07180000
C       -2.81140000      -2.30610000      -0.01940000
N       -3.56410000      -3.45540000       0.12130000
N       -3.38840000      -1.13300000      -0.19490000
O       -2.33920000      -0.20820000      -0.20230000
H        0.64380000       1.89510000      -0.17040000
H       -1.06010000       1.66970000      -0.22530000
H        1.24150000      -1.52910000      -0.11090000
H       -0.67460000      -2.97840000       0.22880000
H       -3.14550000      -4.28490000      -0.27320000
H       -4.52570000      -3.33960000      -0.16880000
