21
Properties=species:S:1:pos:R:3 gdb_108664=T pbc="F F F"
C        0.12300000       1.52510000      -0.11760000
C       -0.02160000       0.02470000       0.14540000
O        0.42820000      -0.70020000      -0.99830000
C        1.35540000      -1.69910000      -0.60290000
C        1.59630000      -1.49320000       0.87220000
C        2.59190000      -2.34790000       1.59170000
C        0.79970000      -0.51120000       1.30080000
C        0.59960000       0.08340000       2.66020000
O        1.09620000      -0.76600000       3.68230000
H        1.17650000       1.79300000      -0.24310000
H       -0.41430000       1.79430000      -1.03130000
H       -0.29570000       2.11190000       0.70730000
H       -1.09310000      -0.19370000       0.31220000
H        0.95100000      -2.70580000      -0.80800000
H        2.27920000      -1.60220000      -1.19560000
H        3.58330000      -2.25080000       1.13010000
H        2.66200000      -2.08390000       2.64450000
H        2.31860000      -3.40850000       1.51440000
H        1.08860000       1.07240000       2.69970000
H       -0.47970000       0.27280000       2.80080000
H        1.02960000      -0.29320000       4.51680000
