17
Properties=species:S:1:pos:R:3 gdb_36553=T pbc="F F F"
C        0.15980000      -1.23940000      -0.35290000
C        0.12900000      -0.03820000      -0.37630000
C        0.12230000       1.41840000      -0.37500000
C        1.15860000       2.00730000       0.62020000
C        1.15580000       3.46370000       0.62820000
C        1.13560000       4.66830000       0.60670000
C        1.08820000       6.10500000       0.60240000
C        2.31580000       6.92540000       0.63510000
O        1.57440000       6.78480000      -0.56870000
H        0.17400000      -2.30110000      -0.34540000
H        0.33840000       1.79750000      -1.38020000
H       -0.87480000       1.79040000      -0.11350000
H        0.94250000       1.62690000       1.62530000
H        2.15530000       1.63380000       0.35890000
H        0.18060000       6.54520000       1.01440000
H        2.28280000       7.90970000       1.10080000
H        3.28170000       6.42420000       0.65460000
