22
Properties=species:S:1:pos:R:3 gdb_107037=T pbc="F F F"
C       -0.41900000       1.47030000      -0.08040000
C        0.14250000       0.05380000       0.10780000
C        0.89450000      -0.45620000      -1.09880000
N        0.13730000      -0.88960000      -2.31620000
C        0.93130000      -1.87530000      -1.54370000
C        2.30550000      -2.17990000      -2.14630000
C        2.25140000      -2.75650000      -3.56880000
C        2.99360000      -0.82700000      -2.05930000
C        2.23410000       0.10320000      -1.48000000
H        0.38080000       2.19590000      -0.26010000
H       -1.10020000       1.51290000      -0.93620000
H       -0.96900000       1.79520000       0.80790000
H        0.80830000       0.03470000       0.98000000
H       -0.67880000      -0.63900000       0.33290000
H       -0.84210000      -1.01000000      -2.05700000
H        0.39870000      -2.65320000      -1.00490000
H        2.82770000      -2.90060000      -1.49940000
H        1.67110000      -2.09550000      -4.21720000
H        3.25680000      -2.86460000      -3.98880000
H        1.78060000      -3.74530000      -3.57280000
H        3.98370000      -0.66170000      -2.47170000
H        2.51300000       1.13810000      -1.31810000
