15
Properties=species:S:1:pos:R:3 gdb_54749=T pbc="F F F"
N        0.20780000       0.84820000       0.67600000
C       -0.01080000       0.07610000      -0.42950000
O        0.75350000       0.05650000      -1.37630000
C       -1.30820000      -0.70280000      -0.38600000
C       -1.66220000      -1.73770000      -1.40220000
N       -0.49440000      -2.49640000      -1.86500000
C       -0.17740000      -2.90280000      -0.54950000
O        0.72300000      -3.55360000      -0.10780000
C       -1.40060000      -2.19040000       0.02220000
H        1.11050000       1.29050000       0.75440000
H       -0.30960000       0.69200000       1.52470000
H       -2.15100000      -0.13190000       0.00020000
H       -2.59140000      -1.75790000      -1.95580000
H        0.21430000      -2.03470000      -2.42600000
H       -2.08030000      -2.52940000       0.79160000
