22
Properties=species:S:1:pos:R:3 gdb_63916=T pbc="F F F"
C       -0.24260000       1.59160000       0.06170000
C       -0.02270000       0.07190000      -0.02660000
C       -1.38760000      -0.63550000       0.06330000
C        0.74180000      -0.38040000      -1.31900000
C        2.11680000      -0.85140000      -0.82810000
C        2.84810000       0.30310000      -0.11130000
N        2.31930000      -0.11660000       1.23270000
C        1.87830000      -1.41690000       0.59930000
C        0.87150000      -0.46690000       1.09770000
H        0.69360000       2.15160000       0.00630000
H       -0.89010000       1.93660000      -0.75220000
H       -0.72880000       1.85710000       1.00700000
H       -2.01780000      -0.36590000      -0.79140000
H       -1.26950000      -1.72420000       0.06370000
H       -1.92400000      -0.35280000       0.97580000
H        0.20490000      -1.20120000      -1.80730000
H        0.83210000       0.43020000      -2.05040000
H        2.68770000      -1.43780000      -1.54810000
H        3.93360000       0.17490000      -0.08930000
H        2.62060000       1.33000000      -0.41710000
H        2.13760000      -2.38810000       1.00440000
H        0.42190000      -0.61110000       2.07610000
