21
Properties=species:S:1:pos:R:3 gdb_98399=T pbc="F F F"
C        0.28860000       1.45240000       0.10940000
C        0.07010000      -0.05780000       0.07020000
C       -1.39770000      -0.43960000       0.12680000
O       -2.27780000       0.39260000       0.19570000
C       -1.71560000      -1.92540000       0.09260000
N       -3.02560000      -2.31790000       0.14220000
C       -4.24110000      -1.51840000       0.22660000
N       -0.70340000      -2.71720000       0.01790000
C       -0.95080000      -4.14210000      -0.01770000
H        1.35660000       1.68360000       0.06610000
H       -0.20520000       1.94580000      -0.73220000
H       -0.12160000       1.88820000       1.02440000
H        0.50030000      -0.51190000      -0.82930000
H        0.58120000      -0.56820000       0.89390000
H       -3.16540000      -3.31260000       0.11580000
H       -5.08550000      -2.21280000       0.24410000
H       -4.27160000      -0.90710000       1.13150000
H       -4.35570000      -0.84910000      -0.62900000
H       -0.00100000      -4.67850000      -0.08090000
H       -1.47550000      -4.50180000       0.88430000
H       -1.56020000      -4.44290000      -0.88740000
