16
Properties=species:S:1:pos:R:3 gdb_29172=T pbc="F F F"
C       -0.03160000       1.49400000       0.07900000
C       -0.00040000       0.00830000      -0.01250000
C        0.00520000      -0.77710000      -1.10010000
N        0.00450000      -2.11000000      -0.69410000
C        0.04630000      -2.21110000       0.69340000
N        0.09630000      -3.22390000       1.46040000
N        0.01750000      -0.85250000       1.12180000
C        0.00660000      -0.40820000       2.44090000
O        0.02060000      -1.09630000       3.42510000
H        0.84290000       1.89920000       0.60200000
H       -0.03880000       1.91210000      -0.93060000
H       -0.92350000       1.86320000       0.59940000
H       -0.01070000      -0.49960000      -2.14070000
H        0.12790000      -2.90440000      -1.29460000
H        0.10350000      -4.08510000       0.91620000
H       -0.01890000       0.69570000       2.47670000
