18
Properties=species:S:1:pos:R:3 gdb_113615=T pbc="F F F"
C       -0.25230000       1.63420000      -0.46850000
C       -0.07760000       0.28480000       0.22190000
N       -1.32320000      -0.48060000       0.14120000
C       -1.50140000      -1.33430000      -1.01080000
C       -1.27050000      -1.94090000       0.35020000
C       -0.04210000      -2.62490000       0.61470000
C        0.97250000      -3.22580000       0.88910000
C        2.20030000      -3.91170000       1.18270000
O        2.27240000      -5.00920000       1.68910000
H        0.66110000       2.22940000      -0.37780000
H       -0.46720000       1.50570000      -1.53430000
H       -1.07870000       2.19310000      -0.02130000
H        0.77120000      -0.26170000      -0.21870000
H        0.14980000       0.42800000       1.28390000
H       -2.49950000      -1.37820000      -1.43770000
H       -0.68350000      -1.41930000      -1.72480000
H       -2.13210000      -2.33200000       0.88550000
H        3.11120000      -3.34380000       0.90190000
