16
Properties=species:S:1:pos:R:3 gdb_27433=T pbc="F F F"
N        0.02430000       1.40700000       0.14990000
C       -0.00750000       0.02180000       0.05470000
C       -1.22080000      -0.61400000       0.03250000
C       -1.59270000      -2.01920000       0.01150000
O       -2.78330000      -2.33620000       0.01620000
C       -0.58650000      -3.09700000      -0.03240000
C        0.76400000      -3.04750000      -0.04280000
C        1.62730000      -1.90290000      -0.00680000
C        1.30130000      -0.59060000       0.03990000
H        0.83750000       1.86990000      -0.22490000
H       -0.83770000       1.88800000      -0.05580000
H       -2.10350000       0.02290000       0.04150000
H       -1.06040000      -4.07490000      -0.06110000
H        1.28280000      -4.00280000      -0.07920000
H        2.69040000      -2.12920000      -0.01450000
H        2.12980000       0.11340000       0.07930000
