20
Properties=species:S:1:pos:R:3 gdb_47935=T pbc="F F F"
O       -0.02710000      -0.01300000       0.24200000
C       -0.04700000       1.19990000       0.13900000
C       -1.38220000       1.95730000      -0.00040000
O       -1.71160000       2.26840000      -1.34060000
C       -1.19570000       3.46720000      -1.89830000
C        0.25490000       3.35820000      -2.40870000
C        1.35700000       3.86520000      -1.46400000
C        1.25160000       3.37220000      -0.01230000
N        1.10640000       1.93540000       0.13670000
H       -2.14350000       1.25570000       0.34580000
H       -1.42060000       2.85520000       0.63470000
H       -1.85860000       3.67450000      -2.74390000
H       -1.30850000       4.30250000      -1.18750000
H        0.42400000       2.30680000      -2.66370000
H        0.33820000       3.91590000      -3.34860000
H        2.33210000       3.57800000      -1.87660000
H        1.34780000       4.96290000      -1.43620000
H        2.14330000       3.68180000       0.54300000
H        0.40840000       3.86050000       0.48350000
H        1.94250000       1.36840000       0.15510000
