18
Properties=species:S:1:pos:R:3 gdb_87505=T pbc="F F F"
O       -0.03580000       1.40690000       0.15830000
C       -0.01620000       0.01090000       0.09130000
C       -0.43550000      -0.73230000       1.34750000
C       -1.29580000      -0.73170000       0.11400000
C       -2.72740000      -0.25110000      -0.16450000
N       -2.44770000      -0.60210000      -1.61920000
C       -1.91550000      -1.78450000      -0.81960000
C       -3.20710000      -1.72580000       0.06700000
O       -3.27700000      -2.30430000       1.33070000
H       -0.39820000       1.72280000      -0.67720000
H        0.81430000      -0.41560000      -0.47240000
H        0.12470000      -1.62160000       1.62040000
H       -0.74690000      -0.11140000       2.18210000
H       -3.19590000       0.68950000       0.12730000
H       -3.32850000      -0.87690000      -2.07070000
H       -1.43460000      -2.63840000      -1.29890000
H       -4.12990000      -1.98750000      -0.46060000
H       -2.47510000      -2.06680000       1.81050000
