23
Properties=species:S:1:pos:R:3 gdb_121176=T pbc="F F F"
C       -0.00170000       1.54760000       0.32870000
C       -0.04060000       0.05250000       0.00040000
C       -1.43460000      -0.56230000       0.17330000
C       -1.47130000      -2.05710000      -0.13660000
C       -0.88770000      -2.97240000       0.98210000
C       -2.32800000      -3.29140000       1.45760000
C       -2.86440000      -2.76100000       0.08970000
C       -4.08100000      -1.97630000       0.06750000
C       -5.08710000      -1.31590000       0.06140000
H        1.00230000       1.96150000       0.19190000
H       -0.68580000       2.11170000      -0.31490000
H       -0.29970000       1.73250000       1.36680000
H        0.29610000      -0.10530000      -1.03300000
H        0.67940000      -0.47930000       0.63610000
H       -1.78870000      -0.38520000       1.19820000
H       -2.14700000      -0.04380000      -0.48070000
H       -1.05830000      -2.22750000      -1.13620000
H       -0.37870000      -3.85180000       0.57840000
H       -0.22420000      -2.49420000       1.70690000
H       -2.56800000      -4.32710000       1.70650000
H       -2.64700000      -2.65130000       2.28280000
H       -2.95870000      -3.59560000      -0.61370000
H       -5.97770000      -0.73810000       0.05380000
