20
Properties=species:S:1:pos:R:3 gdb_112943=T pbc="F F F"
C       -1.13690000       1.14900000      -0.38200000
C       -0.00620000       0.18280000      -0.01810000
C        0.89290000      -0.13430000      -1.19810000
C        1.89860000      -1.29800000      -1.06070000
C        1.13940000      -1.91810000      -2.25300000
O        0.17990000      -0.83540000      -2.26320000
C        1.94630000      -2.05020000      -3.54330000
N        1.57370000      -1.17880000      -4.51290000
O        2.83860000      -2.87100000      -3.64130000
H       -0.74150000       2.11380000      -0.71870000
H       -1.74760000       0.73520000      -1.18960000
H       -1.78860000       1.33620000       0.47620000
H        0.61800000       0.60620000       0.78030000
H       -0.42260000      -0.75580000       0.36820000
H        1.33720000       0.78960000      -1.59450000
H        2.94770000      -1.06620000      -1.24420000
H        1.80870000      -1.85840000      -0.12860000
H        0.66160000      -2.88450000      -2.05870000
H        0.79420000      -0.56420000      -4.34440000
H        2.01630000      -1.22220000      -5.41520000
