19
Properties=species:S:1:pos:R:3 gdb_54813=T pbc="F F F"
C       -0.03390000       1.47620000       0.39230000
C        0.17800000       0.00500000       0.06430000
O        1.29020000      -0.44510000      -0.11940000
C       -1.06880000      -0.81100000      -0.00190000
C       -1.16680000      -2.23580000      -0.51260000
C        0.09410000      -3.09280000      -0.66670000
C        0.59850000      -3.24060000       0.75100000
C       -0.20490000      -2.64580000       1.63550000
C       -1.36010000      -1.99130000       0.96360000
H        0.93100000       1.97540000       0.48700000
H       -0.61810000       1.96020000      -0.39930000
H       -0.60440000       1.58650000       1.32140000
H       -1.95910000      -0.21460000      -0.18360000
H       -2.01370000      -2.44590000      -1.15580000
H       -0.15830000      -4.06540000      -1.10960000
H        0.84730000      -2.62730000      -1.30840000
H        1.53230000      -3.73770000       0.98590000
H       -0.04610000      -2.60040000       2.70630000
H       -2.33540000      -1.97740000       1.43810000
