21
Properties=species:S:1:pos:R:3 gdb_105736=T pbc="F F F"
C        0.16190000       1.67330000       0.12990000
C        0.03120000       0.14490000       0.11030000
C       -1.40860000      -0.43250000       0.05410000
C       -1.41080000      -1.98440000       0.01010000
C       -2.58340000      -2.44030000       0.91420000
C       -2.87930000      -1.21380000       1.74150000
C       -2.24560000      -0.13210000       1.29100000
C       -2.15450000       0.15520000      -1.14590000
O       -2.47320000      -0.45460000      -2.13530000
H        1.21240000       1.95770000       0.24320000
H       -0.20030000       2.13370000      -0.79430000
H       -0.38860000       2.12030000       0.96400000
H        0.59000000      -0.25450000      -0.74550000
H        0.50460000      -0.26800000       1.00910000
H       -1.50170000      -2.34260000      -1.01640000
H       -0.46410000      -2.35350000       0.41570000
H       -3.46580000      -2.73120000       0.32870000
H       -2.32370000      -3.30980000       1.52840000
H       -3.55340000      -1.22720000       2.59170000
H       -2.33540000       0.86500000       1.70730000
H       -2.41990000       1.23100000      -1.03990000
