17
Properties=species:S:1:pos:R:3 gdb_46189=T pbc="F F F"
O       -0.11920000       0.05620000      -0.41300000
C       -0.11280000       1.21360000      -0.09980000
C       -1.17950000       2.18940000       0.42600000
C       -0.09030000       3.30800000       0.46380000
C        0.96390000       2.30750000      -0.06570000
C        2.40630000       2.16080000       0.49100000
C        2.80770000       1.36650000      -0.77170000
C        1.99740000       2.61570000      -1.18310000
O        2.76730000       3.42040000      -0.20370000
H       -2.00680000       2.34850000      -0.27160000
H       -1.60010000       1.89640000       1.39230000
H       -0.28260000       4.14950000      -0.20370000
H        0.12400000       3.69750000       1.46020000
H        2.71930000       2.04590000       1.52920000
H        3.86860000       1.41200000      -1.01840000
H        2.35070000       0.38810000      -0.92590000
H        1.81660000       3.05020000      -2.16680000
