19
Properties=species:S:1:pos:R:3 gdb_82562=T pbc="F F F"
O       -0.03830000       1.39930000       0.07590000
C       -0.02190000      -0.01310000       0.02620000
C       -1.46290000      -0.57620000      -0.14410000
C       -1.81860000      -0.47910000      -1.69010000
C       -0.61310000      -1.44790000      -1.77130000
C        0.48200000      -2.19240000      -2.55390000
O        1.47040000      -1.64440000      -1.61590000
C        0.53250000      -0.56670000      -1.32010000
C       -1.10870000      -2.05370000      -0.43310000
H        0.86820000       1.70970000       0.16940000
H        0.45210000      -0.44260000       0.91890000
H       -2.19050000      -0.28460000       0.61280000
H       -2.79760000      -0.92240000      -1.88520000
H       -1.72520000       0.48920000      -2.18610000
H        0.46740000      -3.28610000      -2.54010000
H        0.66710000      -1.82700000      -3.57240000
H        0.74230000       0.28460000      -1.98460000
H       -0.37710000      -2.54910000       0.21040000
H       -1.98890000      -2.68620000      -0.57200000
