12
Properties=species:S:1:pos:R:3 gdb_48459=T pbc="F F F"
O       -0.91200000       1.19600000       0.61580000
C        0.12290000       0.89320000       0.09980000
C        1.33570000       1.83110000       0.00640000
O        2.53200000       1.13480000      -0.37760000
C        2.70130000       1.83550000      -1.63170000
C        1.41640000       2.61720000      -1.37530000
O        0.74830000       3.42140000      -1.92430000
C        1.49270000       2.67830000       1.17960000
N        1.63770000       3.36480000       2.09750000
H        0.31470000      -0.08180000      -0.39440000
H        3.61020000       2.44780000      -1.65670000
H        2.67790000       1.16700000      -2.49990000
