18
Properties=species:S:1:pos:R:3 gdb_107314=T pbc="F F F"
C        0.40730000       1.34630000       0.38220000
C       -0.23170000       0.08080000      -0.20370000
C        0.56320000      -0.47960000      -1.36390000
C        0.39160000       0.08560000      -2.74470000
N       -0.12830000      -1.25880000      -2.40570000
C        0.79190000      -2.27570000      -2.78350000
C        1.90360000      -2.33090000      -2.03210000
C        1.87040000      -1.20750000      -1.07220000
O        2.66000000      -0.93740000      -0.19270000
H        1.42340000       1.13740000       0.72330000
H        0.45530000       2.14550000      -0.36540000
H       -0.17760000       1.71450000       1.23010000
H       -0.30930000      -0.68900000       0.57270000
H       -1.25120000       0.28410000      -0.54910000
H       -0.36180000       0.85470000      -2.89220000
H        1.24960000       0.12890000      -3.40940000
H        0.53040000      -2.88910000      -3.63790000
H        2.71810000      -3.03620000      -2.11310000
