17
Properties=species:S:1:pos:R:3 gdb_127045=T pbc="F F F"
C        0.02070000       1.49400000       0.04210000
C        0.01120000      -0.02160000       0.00310000
O        0.69270000      -0.48910000       1.18020000
C        0.78160000      -1.81360000       1.32190000
N        0.28430000      -2.65800000       0.44450000
O        0.60020000      -3.93310000       0.98180000
C        1.25890000      -3.76930000       2.13720000
N        1.57760000      -4.92490000       2.80830000
C        1.41870000      -2.44530000       2.42540000
H        1.04510000       1.87700000       0.05000000
H       -0.49020000       1.89120000      -0.84000000
H       -0.49240000       1.86360000       0.93450000
H       -1.00770000      -0.42480000      -0.00300000
H        0.52290000      -0.41150000      -0.88410000
H        1.62430000      -5.74180000       2.21550000
H        2.36710000      -4.84860000       3.43130000
H        1.89410000      -1.98480000       3.27300000
