22
Properties=species:S:1:pos:R:3 gdb_11623=T pbc="F F F"
C        0.00140000       1.50830000      -0.14610000
C        0.01200000      -0.00750000       0.05500000
O        0.65080000      -0.35680000       1.28360000
C       -1.39040000      -0.62060000      -0.04670000
C       -1.40100000      -2.14910000       0.07890000
C       -2.79360000      -2.74110000       0.04160000
C       -3.46740000      -3.03760000      -1.27600000
C       -3.01190000      -4.16930000      -0.38560000
H        1.01280000       1.91220000      -0.04840000
H       -0.38760000       1.77610000      -1.13380000
H       -0.63510000       1.99470000       0.60430000
H        0.65040000      -0.46280000      -0.71350000
H        0.15000000       0.05620000       1.99620000
H       -2.02270000      -0.18060000       0.74020000
H       -1.84420000      -0.32250000      -1.00050000
H       -0.80380000      -2.58250000      -0.73530000
H       -0.89450000      -2.43050000       1.00920000
H       -3.45100000      -2.38330000       0.83150000
H       -4.53180000      -2.85350000      -1.37300000
H       -2.90260000      -2.85270000      -2.18460000
H       -2.14390000      -4.74080000      -0.69830000
H       -3.76540000      -4.75610000       0.12840000
