17
Properties=species:S:1:pos:R:3 gdb_124183=T pbc="F F F"
C        0.12960000       1.52350000      -0.33900000
C        0.07630000       0.08220000      -0.13900000
C        0.03310000      -1.10840000       0.03260000
C       -0.02950000      -2.55710000       0.22430000
C       -1.43010000      -3.11570000       0.18230000
C       -1.98770000      -4.05390000       1.02680000
N       -3.25090000      -4.27040000       0.58360000
N       -3.56610000      -3.53170000      -0.49620000
C       -2.46320000      -2.83130000      -0.74170000
H        0.72020000       2.01290000       0.44350000
H        0.58390000       1.77760000      -1.30320000
H       -0.87320000       1.96450000      -0.31960000
H        0.58940000      -3.04350000      -0.54360000
H        0.43480000      -2.82140000       1.18280000
H       -1.58950000      -4.56750000       1.88800000
H       -3.94340000      -4.88770000       0.97140000
H       -2.43950000      -2.13420000      -1.56620000
