15
Properties=species:S:1:pos:R:3 gdb_18537=T pbc="F F F"
N        0.15410000       1.05940000       0.47350000
C        0.04410000      -0.10550000       0.02170000
O        0.96310000      -0.90980000      -0.61860000
C       -0.01450000      -2.02280000      -0.68790000
C        0.24600000      -3.10260000       0.31690000
C       -0.53210000      -2.96480000       1.39220000
C       -1.48160000      -1.79070000       1.30450000
C       -1.08490000      -1.11840000      -0.02670000
H        1.09610000       1.42640000       0.32680000
H       -0.12570000      -2.34160000      -1.72590000
H        0.99340000      -3.87290000       0.17070000
H       -0.50900000      -3.61640000       2.25950000
H       -2.52690000      -2.12280000       1.29410000
H       -1.37980000      -1.10780000       2.15490000
H       -1.92910000      -0.80570000      -0.64060000
