22
Properties=species:S:1:pos:R:3 gdb_120917=T pbc="F F F"
C       -2.18600000       1.50710000       2.35570000
O       -2.18980000       0.20840000       1.81570000
C       -0.93790000      -0.43880000       1.92650000
C       -1.09080000      -1.81720000       1.30710000
C       -1.05540000      -2.06970000      -0.22170000
C       -0.01130000      -3.14580000       0.07980000
C        1.18510000      -2.60140000       0.74860000
C        1.85550000      -1.27850000       0.45020000
N       -0.01860000      -2.84390000       1.58340000
H       -3.18840000       1.92130000       2.22160000
H       -1.94410000       1.50280000       3.43060000
H       -1.46040000       2.16150000       1.84610000
H       -0.15910000       0.16490000       1.43970000
H       -0.64690000      -0.55640000       2.98520000
H       -2.01360000      -2.23170000       1.72320000
H       -1.99510000      -2.46040000      -0.61350000
H       -0.72850000      -1.24800000      -0.86630000
H       -0.05920000      -4.16660000      -0.28720000
H        1.91050000      -3.37130000       1.00920000
H        1.20080000      -0.56180000      -0.04790000
H        2.23840000      -0.81470000       1.36560000
H        2.71070000      -1.45470000      -0.21140000
