19
Properties=species:S:1:pos:R:3 gdb_13273=T pbc="F F F"
C       -0.01980000       1.22020000       0.39070000
O       -0.52540000       0.31630000      -0.58230000
C       -1.22890000      -0.72830000      -0.09450000
N       -1.67400000      -1.61170000      -0.86970000
C       -2.43850000      -2.70620000      -0.33260000
C       -1.96440000      -4.14170000      -0.68370000
C       -2.50690000      -4.60100000       0.69570000
C       -2.44230000      -3.12550000       1.17340000
H        0.47090000       2.02340000      -0.16040000
H       -0.82420000       1.64660000       1.00300000
H        0.71420000       0.73680000       1.04750000
H       -1.36320000      -0.70970000       0.99650000
H       -3.47490000      -2.58750000      -0.67440000
H       -2.36390000      -4.60570000      -1.58810000
H       -0.87160000      -4.17880000      -0.71730000
H       -3.53810000      -4.95910000       0.62900000
H       -1.92000000      -5.33550000       1.25060000
H       -1.47760000      -2.91340000       1.64630000
H       -3.24150000      -2.74980000       1.81730000
