25
Properties=species:S:1:pos:R:3 gdb_80613=T pbc="F F F"
C       -0.17550000       1.53050000      -0.08230000
C        0.06330000       0.02100000      -0.03470000
C        1.00980000      -0.51480000      -1.13740000
C        1.21730000      -1.99020000      -0.70190000
C        1.94470000      -1.31660000       0.49980000
C        2.42370000      -0.26160000      -0.54210000
C        0.79840000      -0.57310000       1.24530000
C        1.34200000       0.47270000       2.23200000
C       -0.11040000      -1.52650000       2.03750000
H        0.75550000       2.10430000      -0.04980000
H       -0.69410000       1.80030000      -1.00900000
H       -0.80130000       1.86800000       0.75040000
H       -0.91350000      -0.46830000      -0.13610000
H        0.76120000      -0.24720000      -2.16640000
H        0.33460000      -2.60640000      -0.51500000
H        1.91010000      -2.52710000      -1.35450000
H        2.65050000      -1.86640000       1.12640000
H        3.21850000      -0.64680000      -1.18550000
H        2.68510000       0.74310000      -0.20370000
H        2.01290000       1.19890000       1.76820000
H        0.52850000       1.03130000       2.70670000
H        1.90170000      -0.02570000       3.03190000
H        0.43920000      -1.99730000       2.86120000
H       -0.95280000      -0.97970000       2.47670000
H       -0.52710000      -2.32400000       1.41700000
