20
Properties=species:S:1:pos:R:3 gdb_7356=T pbc="F F F"
C       -0.08480000       1.41220000      -0.09060000
O        0.11060000       0.02740000       0.07720000
C        0.56560000      -0.60120000      -1.07900000
C        0.74380000      -2.09730000      -0.85550000
O        0.46480000      -2.63790000       0.18550000
C        1.31920000      -2.87010000      -2.04660000
C        2.76080000      -3.29440000      -1.70840000
C        0.43550000      -4.08630000      -2.35920000
H        0.84920000       1.92780000      -0.36580000
H       -0.83690000       1.62880000      -0.86590000
H       -0.43810000       1.80660000       0.86470000
H       -0.13560000      -0.47000000      -1.92640000
H        1.53190000      -0.18660000      -1.42600000
H        1.34530000      -2.20500000      -2.91960000
H        3.19990000      -3.85300000      -2.54060000
H        3.40240000      -2.43030000      -1.50670000
H        2.76470000      -3.93320000      -0.82060000
H       -0.57050000      -3.78390000      -2.66710000
H        0.87230000      -4.68240000      -3.16620000
H        0.34040000      -4.71480000      -1.46990000
