16
Properties=species:S:1:pos:R:3 gdb_98820=T pbc="F F F"
C       -0.02350000       1.38530000      -0.00570000
O        0.02470000      -0.04700000       0.03720000
C        0.65750000      -0.55550000       1.10050000
O        1.17210000       0.07290000       1.99360000
N        0.65710000      -1.93980000       1.06180000
C        1.24810000      -2.86530000       2.04010000
C        0.74650000      -4.03560000       1.14880000
C        0.17580000      -2.95540000       0.20890000
O       -0.42760000      -2.92720000      -0.81970000
H        0.98540000       1.80400000      -0.03520000
H       -0.56610000       1.62960000      -0.91830000
H       -0.54600000       1.77980000       0.86910000
H        2.33200000      -2.76440000       2.12580000
H        0.79210000      -2.79250000       3.02960000
H        1.52340000      -4.65120000       0.69280000
H       -0.01380000      -4.67900000       1.59440000
