14
Properties=species:S:1:pos:R:3 gdb_74240=T pbc="F F F"
N        0.04520000       1.38640000      -0.07920000
C       -0.01740000       0.01610000      -0.02360000
N       -1.09260000      -0.68000000      -0.06660000
C       -0.66770000      -2.08860000      -0.07900000
C       -1.16590000      -2.83560000      -1.22690000
C       -1.56490000      -3.45110000      -2.17730000
C        0.89090000      -2.06520000      -0.03760000
O        1.68120000      -2.96870000      -0.05490000
N        1.17620000      -0.70720000       0.03780000
H        0.75840000       1.82360000       0.48650000
H       -0.86370000       1.81590000       0.02590000
H       -1.00950000      -2.57960000       0.84370000
H       -1.92150000      -3.99730000      -3.01530000
H        2.10640000      -0.33560000      -0.07310000
