23
Properties=species:S:1:pos:R:3 gdb_74993=T pbc="F F F"
C       -0.06660000       1.56700000       0.09500000
C       -0.01260000       0.06660000       0.00460000
C        0.08840000      -0.58080000      -1.16100000
C        0.08560000      -2.07000000      -1.28010000
C        1.39130000      -2.84050000      -1.67090000
C        1.04720000      -3.89090000      -0.57790000
C        0.04360000      -2.88140000       0.04870000
C        0.59890000      -2.06720000       1.21930000
C       -0.07860000      -0.69220000       1.31600000
H        0.76860000       1.95980000       0.69000000
H       -0.03270000       2.03510000      -0.89270000
H       -0.98480000       1.90020000       0.59710000
H        0.15470000      -0.00870000      -2.08600000
H       -0.72650000      -2.38760000      -1.94590000
H        1.47390000      -3.19560000      -2.70090000
H        2.28860000      -2.26460000      -1.42980000
H        0.54240000      -4.76610000      -0.99680000
H        1.86410000      -4.23790000       0.06120000
H       -0.93890000      -3.28590000       0.31240000
H        0.48700000      -2.62260000       2.15770000
H        1.67530000      -1.90790000       1.07690000
H        0.39730000      -0.09700000       2.10580000
H       -1.12810000      -0.80500000       1.62780000
