16
Properties=species:S:1:pos:R:3 gdb_9187=T pbc="F F F"
C       -0.39820000       1.25470000       0.15290000
N        0.16350000      -0.07490000      -0.00040000
C        0.73440000      -0.71430000       1.07720000
O        0.65540000      -0.30240000       2.22170000
N        1.42350000      -1.87250000       0.73640000
C        1.82700000      -2.78850000       1.79780000
C        1.00410000      -3.99570000       1.86290000
C        0.33470000      -4.99380000       1.87880000
H        0.33010000       2.04940000      -0.05680000
H       -1.25580000       1.37850000      -0.51470000
H       -0.72780000       1.35800000       1.18660000
H        0.49260000      -0.32850000      -0.91830000
H        1.17320000      -2.31260000      -0.13650000
H        2.87930000      -3.07000000       1.66620000
H        1.75110000      -2.22040000       2.72980000
H       -0.26230000      -5.87130000       1.91450000
