19
Properties=species:S:1:pos:R:3 gdb_122126=T pbc="F F F"
O       -0.22870000       1.60500000       0.18220000
C        0.10890000       0.30430000      -0.25270000
C       -1.10800000      -0.60570000      -0.29110000
O       -2.02030000      -0.03220000      -1.22400000
C       -3.30200000      -0.63450000      -1.26160000
C       -4.20240000       0.31350000      -2.06320000
O       -3.70680000       0.51190000      -3.37110000
C       -3.25080000      -2.00150000      -1.94640000
O       -4.09430000      -2.84500000      -1.80010000
H       -0.97410000       1.88360000      -0.36180000
H        0.57850000       0.31760000      -1.24950000
H        0.84080000      -0.09510000       0.45650000
H       -0.82380000      -1.62620000      -0.58960000
H       -1.57550000      -0.65120000       0.70340000
H       -3.71630000      -0.76670000      -0.25080000
H       -5.19820000      -0.12880000      -2.15550000
H       -4.29120000       1.26000000      -1.50850000
H       -2.79980000       0.82450000      -3.27680000
H       -2.37450000      -2.14330000      -2.61720000
