20
Properties=species:S:1:pos:R:3 gdb_61309=T pbc="F F F"
N        0.01270000       1.54860000       0.09490000
C       -0.01570000       0.10620000      -0.12650000
C       -1.44590000      -0.42350000       0.09370000
C       -1.93500000      -0.21630000       1.45480000
N       -2.33130000      -0.08500000       2.53190000
C        0.50350000      -0.33260000      -1.50890000
N        1.86590000       0.14880000      -1.69570000
C        2.94030000      -0.77400000      -1.33380000
C        2.64220000      -0.47380000      -2.76100000
H        0.94990000       1.88040000      -0.11820000
H       -0.59980000       2.00820000      -0.57620000
H        0.63290000      -0.34900000       0.63310000
H       -2.13480000       0.06920000      -0.60480000
H       -1.48880000      -1.49570000      -0.12830000
H        0.43140000      -1.43150000      -1.61610000
H       -0.12520000       0.11370000      -2.29180000
H        3.80170000      -0.33060000      -0.84370000
H        2.66190000      -1.76000000      -0.96450000
H        2.16640000      -1.26020000      -3.34460000
H        3.28190000       0.19300000      -3.33170000
