15
Properties=species:S:1:pos:R:3 gdb_109497=T pbc="F F F"
C        0.00050000       1.51090000      -0.08630000
O        0.10930000       0.10610000       0.12180000
C        0.54730000      -0.60310000      -0.98380000
C        1.01360000      -2.01710000      -0.63840000
O        1.55160000      -2.39460000       0.36150000
C        0.63150000      -2.87650000      -1.84360000
O       -0.31780000      -2.10930000      -2.59720000
C       -0.49770000      -0.85950000      -2.08150000
O       -1.34760000      -0.12020000      -2.47770000
H        0.97340000       1.93880000      -0.37080000
H       -0.73940000       1.74560000      -0.85700000
H       -0.31050000       1.93800000       0.86860000
H        1.40560000      -0.11290000      -1.48710000
H        1.50800000      -3.09550000      -2.46450000
H        0.17560000      -3.82000000      -1.53160000
