17
Properties=species:S:1:pos:R:3 gdb_19366=T pbc="F F F"
C       -0.25490000       1.32410000      -0.05520000
O        0.16460000      -0.02460000       0.08950000
C        0.74100000      -0.53500000      -1.05000000
C       -0.03350000      -1.00140000      -2.25260000
C        0.82840000      -1.98090000      -1.47040000
C        2.34700000      -1.78150000      -1.75590000
N        2.52160000      -0.70780000      -2.77200000
C        2.27300000      -0.36720000      -1.34840000
H        0.58960000       1.98940000      -0.28420000
H       -1.00370000       1.42570000      -0.85210000
H       -0.69560000       1.62460000       0.89790000
H       -1.09390000      -1.12240000      -2.05150000
H        0.22830000      -0.70640000      -3.26050000
H        0.41950000      -2.85730000      -0.98620000
H        3.12030000      -2.51800000      -1.58120000
H        3.52400000      -0.61000000      -2.93400000
H        2.95980000       0.23350000      -0.76620000
