19
Properties=species:S:1:pos:R:3 gdb_114217=T pbc="F F F"
O       -0.07040000       1.19890000      -0.71470000
C        0.01130000      -0.15060000      -0.29580000
C       -1.30600000      -0.57950000       0.33000000
O       -2.39270000      -0.38070000      -0.62430000
C       -2.57940000      -1.79520000      -0.74490000
C       -3.88620000      -2.40920000      -1.10780000
C       -2.69900000      -2.49110000      -2.05880000
C       -1.60770000      -2.10410000       0.38270000
O       -0.58920000      -3.00770000       0.02480000
H       -0.87270000       1.25460000      -1.24910000
H        0.26050000      -0.82430000      -1.12720000
H        0.82120000      -0.21270000       0.43980000
H       -1.50350000      -0.01320000       1.24680000
H       -4.20100000      -3.30620000      -0.58370000
H       -4.69000000      -1.73020000      -1.37160000
H       -2.72790000      -1.86800000      -2.94620000
H       -2.18310000      -3.43790000      -2.17370000
H       -2.10270000      -2.40890000       1.31280000
H       -0.12340000      -3.27780000       0.82180000
