23
Properties=species:S:1:pos:R:3 gdb_116178=T pbc="F F F"
O       -0.02360000       1.42500000      -0.00690000
C        0.02360000       0.00450000       0.01650000
C       -1.40650000      -0.52680000      -0.00850000
C       -2.15490000      -0.10140000      -1.28230000
C       -3.58500000      -0.65710000      -1.30960000
C       -3.59170000      -2.18370000      -1.14300000
C       -2.85130000      -2.60910000       0.12960000
O       -2.74730000      -4.02400000       0.24380000
C       -1.42710000      -2.05540000       0.14800000
H        0.87810000       1.75590000      -0.04440000
H        0.57680000      -0.38860000      -0.85320000
H        0.53620000      -0.35850000       0.92200000
H       -1.92380000      -0.08110000       0.85410000
H       -2.15980000       0.98920000      -1.35650000
H       -1.60380000      -0.47550000      -2.15790000
H       -4.16800000      -0.19910000      -0.49870000
H       -4.08510000      -0.37800000      -2.24350000
H       -4.62200000      -2.56330000      -1.11770000
H       -3.09760000      -2.65970000      -2.00030000
H       -3.39310000      -2.20080000       1.00150000
H       -3.63620000      -4.39030000       0.19460000
H       -0.86960000      -2.52520000      -0.67410000
H       -0.93610000      -2.36150000       1.07870000
