16
Properties=species:S:1:pos:R:3 gdb_2972=T pbc="F F F"
C        0.10630000       1.43660000       0.10690000
C       -0.08010000      -0.08750000      -0.02930000
C       -1.50910000      -0.43280000      -0.03520000
N       -2.63440000      -0.69610000      -0.04980000
C        0.60810000      -0.64480000      -1.26890000
C        2.07500000      -0.98670000      -1.21000000
C        1.04430000      -2.08400000      -1.31940000
H        1.17320000       1.67050000       0.14880000
H       -0.32800000       1.95660000      -0.75150000
H       -0.37360000       1.81450000       1.01300000
H        0.35800000      -0.57370000       0.85260000
H        0.24390000      -0.21480000      -2.19760000
H        2.68870000      -0.76280000      -2.07500000
H        2.58720000      -0.86680000      -0.26050000
H        0.86420000      -2.69930000      -0.44400000
H        0.94920000      -2.61430000      -2.25980000
