15
Properties=species:S:1:pos:R:3 gdb_12348=T pbc="F F F"
O       -0.01310000       1.40300000       0.09100000
C        0.01850000       0.00760000      -0.01030000
C       -1.39820000      -0.58150000       0.00320000
N       -1.42510000      -2.02610000      -0.22270000
C       -0.52320000      -2.49370000      -0.98040000
N        0.50030000      -1.76240000      -1.59090000
C        0.74740000      -0.44030000      -1.26690000
N        1.51060000       0.38440000      -1.86470000
H        0.65000000       1.72240000      -0.54220000
H        0.57510000      -0.43530000       0.83680000
H       -1.87570000      -0.35990000       0.96100000
H       -1.99890000      -0.08480000      -0.77220000
H       -0.50580000      -3.55510000      -1.22570000
H        1.05740000      -2.20590000      -2.30590000
H        1.96140000      -0.00130000      -2.69430000
