21
Properties=species:S:1:pos:R:3 gdb_88203=T pbc="F F F"
C       -0.05170000       1.51590000      -0.17730000
C       -0.00130000       0.03110000       0.08070000
O        1.26820000      -0.62570000      -0.03300000
C        0.62010000      -0.60740000       1.25230000
C        1.33640000       0.15330000       2.35300000
C        2.35270000      -0.77330000       3.04260000
C        1.67910000      -2.08320000       3.45470000
O        1.09550000      -2.73800000       2.34040000
C        0.09420000      -1.95420000       1.71790000
H        0.75260000       2.04920000       0.33240000
H        0.03970000       1.71210000      -1.25080000
H       -1.01090000       1.92690000       0.15610000
H       -0.81400000      -0.52490000      -0.39540000
H        1.83150000       1.03870000       1.94860000
H        0.59450000       0.49490000       3.08810000
H        3.16860000      -1.00020000       2.34740000
H        2.78930000      -0.28370000       3.92020000
H        2.40210000      -2.78730000       3.87610000
H        0.91030000      -1.88670000       4.22410000
H       -0.75010000      -1.79160000       2.41280000
H       -0.26490000      -2.53110000       0.86200000
