20
Properties=species:S:1:pos:R:3 gdb_12076=T pbc="F F F"
C        0.08930000       1.33120000      -0.06110000
O       -0.01280000      -0.06040000       0.14100000
C       -1.31870000      -0.60580000       0.05000000
C       -2.25080000      -0.06510000       1.13180000
C       -1.97330000      -0.61930000      -1.38640000
C       -1.95310000      -2.14990000      -1.34410000
C       -0.54120000      -2.63450000      -1.18220000
C       -1.27500000      -2.13570000       0.02880000
H        1.15560000       1.56510000      -0.11940000
H       -0.38940000       1.65010000      -0.99910000
H       -0.34730000       1.91340000       0.76280000
H       -2.46380000       0.99920000       0.99240000
H       -3.20440000      -0.60040000       1.11150000
H       -1.79920000      -0.20220000       2.11990000
H       -2.97480000      -0.18260000      -1.39390000
H       -1.38080000      -0.16390000      -2.18620000
H       -2.74870000      -2.79640000      -1.69260000
H       -0.40690000      -3.71070000      -1.22250000
H        0.28760000      -2.05940000      -1.58450000
H       -1.45680000      -2.76180000       0.89460000
