20
Properties=species:S:1:pos:R:3 gdb_121180=T pbc="F F F"
C       -0.11800000       1.56680000       0.03450000
C       -0.03550000       0.03930000      -0.02070000
C        0.75600000      -0.47160000      -1.23160000
C        0.81970000      -1.99100000      -1.28720000
C       -0.45650000      -2.76650000      -1.68790000
O        0.23510000      -3.44190000      -2.76690000
C        1.43850000      -2.69060000      -2.53880000
C        1.78570000      -1.82370000      -3.67180000
N        2.06840000      -1.13380000      -4.55500000
H        0.87990000       2.01500000       0.09230000
H       -0.60880000       1.96890000      -0.85830000
H       -0.68560000       1.90240000       0.90750000
H        0.42760000      -0.33900000       0.90030000
H       -1.04990000      -0.38080000      -0.04460000
H        0.30590000      -0.08920000      -2.15640000
H        1.77580000      -0.06650000      -1.20050000
H        1.27230000      -2.38520000      -0.37350000
H       -0.85400000      -3.47830000      -0.95770000
H       -1.27310000      -2.13840000      -2.06540000
H        2.29300000      -3.34650000      -2.33380000
