17
Properties=species:S:1:pos:R:3 gdb_1626=T pbc="F F F"
C        0.05350000       1.52650000      -0.03820000
C        0.03520000      -0.00530000       0.03620000
C        0.75050000      -0.49990000       1.30170000
C       -1.43170000      -0.50900000      -0.05060000
O       -2.08970000       0.03270000      -1.16410000
C       -1.51810000      -2.02210000      -0.10230000
O       -2.04430000      -2.59260000      -1.02930000
H        1.08370000       1.89560000      -0.06750000
H       -0.47090000       1.87850000      -0.92800000
H       -0.43430000       1.96430000       0.84120000
H        0.55720000      -0.39780000      -0.84700000
H        0.20280000      -0.20510000       2.20490000
H        0.87740000      -1.58630000       1.32510000
H        1.74860000      -0.05600000       1.36700000
H       -1.94180000      -0.19910000       0.88210000
H       -2.39700000      -0.72950000      -1.68060000
H       -1.08760000      -2.58460000       0.74770000
