19
Properties=species:S:1:pos:R:3 gdb_40773=T pbc="F F F"
C        0.25970000       1.51760000       0.06720000
O        1.13060000       0.45080000      -0.30930000
C       -0.22900000       0.13350000       0.00780000
C       -0.46390000      -0.69990000       1.23450000
C       -1.94600000      -0.97680000       1.64810000
C       -1.60370000      -2.48240000       1.85780000
C       -0.28440000      -2.22560000       1.12740000
C        0.35920000      -2.99350000       0.05830000
O        0.92040000      -2.91470000       1.37760000
H        0.46770000       1.97010000       1.03610000
H        0.00510000       2.21800000      -0.72720000
H       -0.82540000      -0.15200000      -0.86190000
H        0.12920000      -0.31090000       2.06840000
H       -2.31670000      -0.42980000       2.51590000
H       -2.63750000      -0.81970000       0.81560000
H       -1.43240000      -2.73250000       2.90880000
H       -2.28530000      -3.21960000       1.42730000
H       -0.03890000      -3.96830000      -0.22170000
H        0.92500000      -2.47590000      -0.71480000
