19
Properties=species:S:1:pos:R:3 gdb_84985=T pbc="F F F"
C        0.49060000       1.36360000      -0.27690000
C       -0.05200000      -0.05440000      -0.03870000
O       -1.44920000      -0.02570000       0.19910000
C        0.28550000      -1.03590000      -1.17180000
C        1.66390000      -1.63020000      -0.81930000
O        2.65390000      -0.72150000      -1.29550000
C        1.66150000      -1.72790000       0.71860000
C        0.65600000      -0.67770000       1.18340000
O        0.37060000      -0.39820000       2.32090000
H        1.55480000       1.34450000      -0.52220000
H       -0.05680000       1.81530000      -1.10940000
H        0.33770000       1.97680000       0.61700000
H       -1.55740000       0.25120000       1.11960000
H       -0.46940000      -1.82790000      -1.17440000
H        0.30470000      -0.57250000      -2.16030000
H        1.80190000      -2.61320000      -1.28770000
H        3.51870000      -1.05640000      -1.03780000
H        1.29520000      -2.70530000       1.05690000
H        2.64560000      -1.58140000       1.17340000
