23
Properties=species:S:1:pos:R:3 gdb_111591=T pbc="F F F"
C       -1.67000000      -0.07750000      -0.16170000
C       -0.15850000       0.03140000       0.07520000
C        0.65100000      -0.57040000      -1.06910000
C        2.21120000      -0.59790000      -1.08950000
C        2.56040000      -1.37170000       0.19670000
C        1.87060000      -2.68160000      -0.24690000
C        2.74980000      -3.07170000      -1.46520000
C        2.11110000      -1.82830000      -2.09960000
C        0.80720000      -2.08710000      -1.28040000
H       -1.96660000       0.44560000      -1.07780000
H       -1.97920000      -1.12330000      -0.26520000
H       -2.23710000       0.35620000       0.66790000
H        0.11760000       1.08810000       0.19510000
H        0.08860000      -0.45940000       1.02270000
H        0.30010000      -0.13890000      -2.01690000
H        2.78810000       0.29630000      -1.32740000
H        3.63600000      -1.50720000       0.34520000
H        2.14920000      -0.91620000       1.09970000
H        1.59270000      -3.40770000       0.51640000
H        3.83430000      -3.12360000      -1.32010000
H        2.40080000      -3.98080000      -1.96450000
H        2.11370000      -1.60830000      -3.16670000
H        0.01190000      -2.75060000      -1.62030000
