15
Properties=species:S:1:pos:R:3 gdb_52754=T pbc="F F F"
C        0.01450000       1.48730000       0.01470000
C       -0.00800000       0.03440000      -0.01710000
C       -0.03860000      -1.16670000      -0.04770000
C       -0.04470000      -2.62160000      -0.08170000
O       -1.37510000      -3.09580000       0.14020000
C       -1.48650000      -4.38700000       0.55380000
N       -2.63030000      -4.87780000       0.72850000
C        0.47820000      -3.12950000      -1.37320000
N        0.89630000      -3.55360000      -2.36240000
H        0.65470000       1.85620000       0.82260000
H        0.39090000       1.89330000      -0.92980000
H       -0.99310000       1.88520000       0.17400000
H        0.61840000      -3.00990000       0.70690000
H       -0.52060000      -4.88660000       0.70610000
H       -2.55770000      -5.84050000       1.05090000
