16
Properties=species:S:1:pos:R:3 gdb_130089=T pbc="F F F"
N       -0.09590000       1.32670000       0.15030000
C        0.04310000      -0.05900000       0.04920000
N       -1.04030000      -0.84570000       0.02990000
N       -0.51590000      -2.08940000       0.00900000
C       -1.11260000      -3.40560000      -0.00980000
C        0.12910000      -4.27600000      -0.03520000
C        1.23850000      -3.51420000      -0.02860000
C        0.84020000      -2.11460000       0.00040000
C        1.25930000      -0.79550000       0.02830000
H        0.56980000       1.83500000      -0.41630000
H       -1.03990000       1.61760000      -0.07080000
H       -1.73160000      -3.58290000       0.87890000
H       -1.74760000      -3.55270000      -0.89260000
H        0.08080000      -5.35540000      -0.05420000
H        2.26080000      -3.86460000      -0.04180000
H        2.26530000      -0.41070000       0.04800000
