17
Properties=species:S:1:pos:R:3 gdb_133063=T pbc="F F F"
C       -0.05750000       1.55910000       0.03450000
C        0.01430000       0.02160000       0.00970000
C        0.71470000      -0.50000000      -1.22160000
C        0.01960000      -0.72690000      -2.41680000
C        0.71490000      -1.17240000      -3.53080000
N        2.03480000      -1.40540000      -3.53860000
C        2.66630000      -1.18730000      -2.40890000
F        3.97730000      -1.42150000      -2.41450000
C        2.08560000      -0.74210000      -1.22490000
H        0.94480000       1.99800000       0.02090000
H       -0.60040000       1.94140000      -0.83540000
H       -0.57040000       1.90700000       0.93600000
H        0.53770000      -0.33220000       0.90450000
H       -1.00030000      -0.38970000       0.05150000
H       -1.05110000      -0.56240000      -2.47330000
H        0.19610000      -1.35890000      -4.46740000
H        2.69750000      -0.59860000      -0.34190000
