20
Properties=species:S:1:pos:R:3 gdb_112459=T pbc="F F F"
C        0.11270000       1.64930000      -0.06970000
C        0.09410000       0.11870000      -0.09940000
C        0.63290000      -0.54230000       1.19130000
N       -0.14990000      -0.16190000       2.35950000
C       -0.84830000      -0.95040000       3.22890000
O       -1.45360000      -0.47810000       4.17400000
C       -0.83530000      -2.44880000       2.95940000
C        0.03410000      -2.88570000       1.81980000
C        0.69240000      -2.03400000       1.04180000
H        1.12160000       2.03260000       0.12220000
H       -0.22090000       2.06050000      -1.02670000
H       -0.55400000       2.04920000       0.70150000
H       -0.92440000      -0.24650000      -0.27430000
H        0.70770000      -0.23650000      -0.93630000
H        1.66240000      -0.17110000       1.33450000
H       -0.18390000       0.81810000       2.60090000
H       -0.53960000      -2.93800000       3.89580000
H       -1.87760000      -2.75620000       2.80020000
H        0.11660000      -3.95540000       1.64410000
H        1.31100000      -2.39240000       0.22420000
