16
Properties=species:S:1:pos:R:3 gdb_15095=T pbc="F F F"
C        0.06300000      -3.69840000      -0.27890000
C        0.04460000      -2.49840000      -0.14390000
C        0.02320000      -1.14620000       0.00810000
C        0.00350000       0.05650000       0.14220000
C       -0.00000000       1.50400000       0.30950000
C        1.38620000       2.12510000       0.19230000
C        1.94430000       2.47810000      -1.15970000
C        1.52270000       3.57110000      -0.20660000
H        0.07960000      -4.75310000      -0.39740000
H       -0.66370000       1.95410000      -0.44150000
H       -0.43770000       1.75310000       1.28610000
H        2.09550000       1.75270000       0.92490000
H        3.00290000       2.32490000      -1.33580000
H        1.32020000       2.29440000      -2.02810000
H        0.61650000       4.12240000      -0.43670000
H        2.29170000       4.16610000       0.27320000
