16
Properties=species:S:1:pos:R:3 gdb_124213=T pbc="F F F"
C        0.08780000       1.35680000      -0.09020000
C       -0.02410000      -0.13980000       0.07480000
N       -0.11510000      -0.66130000       1.23070000
N       -0.01210000      -0.81330000      -1.15260000
C       -0.09450000      -2.16620000      -1.37910000
N       -0.20350000      -3.09120000      -0.43320000
N       -0.24660000      -4.23470000      -1.17800000
C       -0.16480000      -3.94490000      -2.48520000
N       -0.06610000      -2.64180000      -2.66150000
H        1.01920000       1.62920000      -0.60010000
H       -0.74320000       1.75150000      -0.68630000
H        0.07180000       1.81980000       0.89510000
H       -0.18280000      -1.67770000       1.17940000
H        0.06700000      -0.26910000      -1.99690000
H       -0.33280000      -5.12490000      -0.71730000
H       -0.17920000      -4.69430000      -3.26210000
