23
Properties=species:S:1:pos:R:3 gdb_41527=T pbc="F F F"
C        0.01750000       1.55100000      -0.19400000
C        1.52130000       1.54820000       0.22620000
C        1.32160000       0.11670000       0.68880000
C        1.87270000      -0.64510000       1.62550000
C        1.38590000      -2.02090000       2.01860000
C        0.50030000      -2.71890000       0.97080000
C       -0.94940000      -2.21220000       0.83390000
C       -1.12650000      -0.68410000       0.70170000
C        0.00250000      -0.00710000      -0.06760000
H       -0.61680000       2.02060000       0.56330000
H       -0.22650000       1.97370000      -1.17120000
H        2.18620000       1.62450000      -0.64220000
H        1.84600000       2.28190000       0.96960000
H        2.73960000      -0.26910000       2.16800000
H        2.26370000      -2.65310000       2.20840000
H        0.86030000      -1.97150000       2.98540000
H        1.00600000      -2.64500000       0.00050000
H        0.45750000      -3.78920000       1.20520000
H       -1.38680000      -2.70440000      -0.04390000
H       -1.53740000      -2.55790000       1.69350000
H       -2.09370000      -0.46970000       0.22900000
H       -1.16550000      -0.22920000       1.69940000
H        0.13000000      -0.46830000      -1.05630000
