21
Properties=species:S:1:pos:R:3 gdb_58520=T pbc="F F F"
C        0.09570000       1.52540000      -0.12120000
C        0.05800000       0.01070000       0.11950000
O        0.59320000      -0.31820000       1.39300000
C       -1.35270000      -0.58180000       0.00510000
O       -2.14010000      -0.10970000       1.10250000
C       -2.12860000      -0.50970000      -1.35570000
C       -2.29720000      -2.03480000      -1.31400000
C       -0.94810000      -2.69170000      -1.29050000
C       -1.49110000      -2.10820000      -0.01680000
H        1.11720000       1.89110000       0.00820000
H       -0.24090000       1.78610000      -1.13020000
H       -0.53330000       2.05850000       0.60180000
H        0.70640000      -0.47650000      -0.61740000
H       -0.13390000      -0.18440000       2.01570000
H       -2.35420000       0.81580000       0.93940000
H       -3.06660000       0.03660000      -1.23130000
H       -1.59050000      -0.10950000      -2.22190000
H       -3.19630000      -2.57140000      -1.58910000
H       -0.95370000      -3.77630000      -1.32750000
H       -0.10330000      -2.24080000      -1.80600000
H       -1.66200000      -2.70230000       0.87150000
