15
Properties=species:S:1:pos:R:3 gdb_11274=T pbc="F F F"
C       -0.13500000       1.56730000      -0.01700000
C        0.09930000       0.06170000       0.02120000
C        0.88920000      -0.50090000      -1.19750000
N        1.72570000      -1.52430000      -0.55350000
C        1.74180000      -1.18870000       0.79390000
N        0.87920000      -0.34290000       1.21250000
C        2.69050000      -1.83850000       1.65920000
N        3.47790000      -2.36880000       2.31800000
H        0.81710000       2.10500000      -0.06830000
H       -0.73520000       1.84330000      -0.89020000
H       -0.66230000       1.89330000       0.88280000
H       -0.87160000      -0.44820000       0.09440000
H        0.24310000      -0.94010000      -1.96070000
H        1.50410000       0.28060000      -1.66670000
H        2.59750000      -1.79250000      -0.98750000
