14
Properties=species:S:1:pos:R:3 gdb_25167=T pbc="F F F"
N       -0.02320000       1.26270000       0.40360000
C       -0.03650000       0.05850000       0.01370000
O        1.14080000      -0.54070000      -0.45170000
C        1.18000000      -1.81800000      -0.87750000
C        0.10010000      -2.61920000      -0.89140000
C       -1.14380000      -2.08230000      -0.43100000
C       -1.23210000      -0.79520000       0.00930000
C       -2.45310000      -0.24130000       0.46990000
C       -3.50470000       0.20070000       0.85520000
H        0.91220000       1.66060000       0.31900000
H        2.17540000      -2.10020000      -1.19780000
H        0.18280000      -3.63830000      -1.24290000
H       -2.03230000      -2.70310000      -0.42990000
H       -4.42270000       0.60880000       1.19870000
