15
Properties=species:S:1:pos:R:3 gdb_44767=T pbc="F F F"
O       -0.02200000       0.02810000       0.05470000
C       -0.00410000       1.22440000      -0.02620000
N       -1.06280000       2.12160000      -0.11050000
C       -0.41230000       3.44250000       0.02760000
C        0.71250000       3.29800000      -1.02850000
C        1.20450000       2.21090000      -0.00640000
C        0.67680000       3.19490000       1.11290000
C        2.53270000       1.65600000      -0.01130000
N        3.61070000       1.23960000      -0.01530000
H       -1.93100000       1.90290000       0.35640000
H       -1.10630000       4.27870000       0.04700000
H        0.42690000       2.96000000      -2.02510000
H        1.38870000       4.15270000      -1.06900000
H        1.35310000       4.03640000       1.27250000
H        0.36450000       2.75250000       2.06100000
