17
Properties=species:S:1:pos:R:3 gdb_52499=T pbc="F F F"
C       -0.01140000       1.49910000       0.01020000
C        0.01010000       0.04750000       0.00220000
C        0.02910000      -1.16270000      -0.00450000
C        0.04920000      -2.52260000      -0.01200000
C        0.07280000      -3.73340000      -0.01870000
C        0.06720000      -5.18710000      -0.02650000
C       -1.37150000      -5.77470000      -0.01590000
C       -1.36850000      -7.23120000      -0.02370000
C       -1.33100000      -8.43250000      -0.03050000
H        1.00440000       1.91030000       0.00270000
H       -0.53610000       1.89330000      -0.86760000
H       -0.51920000       1.88380000       0.90210000
H        0.59660000      -5.56200000      -0.91060000
H        0.61330000      -5.57150000       0.84340000
H       -1.90140000      -5.40330000       0.86840000
H       -1.91820000      -5.39390000      -0.88590000
H       -1.31600000      -9.49420000      -0.03640000
