16
Properties=species:S:1:pos:R:3 gdb_124302=T pbc="F F F"
C        0.30150000       1.42490000       0.13210000
C       -0.14930000      -0.02280000       0.11870000
O       -0.75700000      -0.51890000       1.03640000
C        0.18720000      -0.80860000      -1.15550000
C        0.12020000      -2.29460000      -1.01310000
C        1.02560000      -3.22150000      -1.42380000
O        0.61050000      -4.46190000      -1.13510000
N       -0.62680000      -4.38250000      -0.49920000
C       -0.90200000      -3.10530000      -0.43230000
H        1.39480000       1.46790000       0.20520000
H        0.02530000       1.93080000      -0.79940000
H       -0.13640000       1.94360000       0.98530000
H       -0.52730000      -0.45270000      -1.91460000
H        1.17110000      -0.49880000      -1.52460000
H        1.98090000      -3.14800000      -1.92140000
H       -1.81620000      -2.78350000       0.04220000
