22
Properties=species:S:1:pos:R:3 gdb_61602=T pbc="F F F"
C        0.08080000       1.33060000      -0.43690000
C       -0.02920000      -0.09900000       0.13190000
C        0.64220000      -0.24770000       1.52470000
C        2.13530000       0.01130000       1.52920000
C        3.02170000      -0.64830000       2.53210000
N        3.14290000      -0.97340000       1.11660000
C        2.74590000      -2.30970000       0.69890000
C       -1.42880000      -0.51550000       0.20810000
C       -2.58230000      -0.84460000       0.29340000
H        1.12670000       1.61540000      -0.57780000
H       -0.42370000       1.39820000      -1.40390000
H       -0.38820000       2.05160000       0.24000000
H        0.48570000      -0.77770000      -0.56140000
H        0.16470000       0.45890000       2.21550000
H        0.42220000      -1.24510000       1.91420000
H        2.40960000       1.02060000       1.22560000
H        3.85790000      -0.11620000       2.97910000
H        2.55550000      -1.38720000       3.18460000
H        1.89680000      -2.73850000       1.25360000
H        2.49140000      -2.30030000      -0.36620000
H        3.60080000      -2.98070000       0.83180000
H       -3.59950000      -1.14210000       0.35710000
