21
Properties=species:S:1:pos:R:3 gdb_88668=T pbc="F F F"
C        0.08550000       1.52460000      -0.35870000
C       -0.06510000       0.07450000       0.02540000
O        1.11410000      -0.73820000       0.02180000
C        0.44070000      -0.53110000       1.27120000
C        1.18130000       0.20090000       2.35250000
C        0.38190000       0.61350000       3.62410000
C        1.60730000       0.22450000       4.47280000
O        1.28280000      -0.41620000       5.68350000
C        2.12480000      -0.62440000       3.27840000
H        0.94860000       1.98760000       0.12320000
H        0.21630000       1.61470000      -1.44220000
H       -0.81350000       2.08670000      -0.08310000
H       -0.92760000      -0.41750000      -0.43110000
H       -0.08830000      -1.41880000       1.63040000
H        1.71670000       1.05420000       1.93110000
H        0.00010000       1.63410000       3.69340000
H       -0.43350000      -0.08960000       3.82300000
H        2.25840000       1.09430000       4.64440000
H        2.10030000      -0.61710000       6.15010000
H        1.77250000      -1.65620000       3.37910000
H        3.19390000      -0.62600000       3.05500000
