15
Properties=species:S:1:pos:R:3 gdb_49318=T pbc="F F F"
N        0.10170000       1.31490000      -0.01940000
C       -0.00490000       0.05290000      -0.00800000
N       -1.23100000      -0.62170000       0.02580000
C       -2.54230000      -0.09430000       0.05400000
N       -2.83050000       1.14330000       0.05250000
C       -3.43700000      -1.27520000       0.08360000
C       -2.70800000      -2.39450000       0.07340000
C       -1.27770000      -2.03250000       0.03650000
N       -0.23220000      -2.75940000       0.01620000
H        1.09080000       1.56220000      -0.04460000
H        0.81090000      -0.67320000      -0.02220000
H       -3.84530000       1.25290000       0.07630000
H       -4.51380000      -1.17760000       0.10880000
H       -3.04850000      -3.42050000       0.08850000
H       -0.48440000      -3.74600000       0.02900000
