22
Properties=species:S:1:pos:R:3 gdb_100535=T pbc="F F F"
C       -0.29070000       1.49140000      -0.19340000
C       -0.11500000      -0.02580000      -0.10590000
C        0.64600000      -0.44590000       1.17050000
O       -0.02140000       0.00810000       2.32120000
C        0.73870000      -1.98370000       1.26070000
O       -0.02900000      -2.55010000       2.03390000
N        1.62060000      -2.66510000       0.47980000
C        1.62480000      -4.12050000       0.51900000
C        2.58170000      -2.06720000      -0.42740000
H        0.67760000       1.99880000      -0.27470000
H       -0.88770000       1.76890000      -1.06740000
H       -0.79100000       1.86420000       0.70320000
H       -1.09490000      -0.51780000      -0.08150000
H        0.40470000      -0.39920000      -0.99660000
H        1.64730000       0.00650000       1.16420000
H       -0.44850000      -0.79160000       2.67640000
H        0.86490000      -4.44980000       1.22470000
H        1.40770000      -4.53160000      -0.47470000
H        2.60680000      -4.49160000       0.83670000
H        3.58070000      -2.47530000      -0.23110000
H        2.32890000      -2.28650000      -1.47330000
H        2.62880000      -0.98760000      -0.30430000
