18
Properties=species:S:1:pos:R:3 gdb_62547=T pbc="F F F"
C       -0.15180000       1.46310000      -0.01880000
C       -0.00400000      -0.05650000       0.03840000
C       -1.34600000      -0.75860000       0.25090000
C        0.95940000      -0.66650000      -1.05110000
O        1.89630000      -1.05560000      -0.01750000
C        1.09430000      -0.53600000       0.97810000
N        1.25150000      -0.48630000       2.21820000
C        0.44070000      -1.82570000      -1.86410000
O        0.62730000      -2.98480000      -1.60850000
H        0.81340000       1.95670000      -0.16530000
H       -0.81930000       1.75800000      -0.83540000
H       -0.57730000       1.82960000       0.91990000
H       -2.06160000      -0.48660000      -0.53240000
H       -1.23960000      -1.84640000       0.26310000
H       -1.76390000      -0.45250000       1.21390000
H        1.39660000       0.08450000      -1.72040000
H        2.12980000      -0.91750000       2.51020000
H       -0.16390000      -1.50560000      -2.74460000
