16
Properties=species:S:1:pos:R:3 gdb_17217=T pbc="F F F"
C        0.04440000      -1.13480000      -0.06450000
C        0.01680000       0.06820000      -0.01620000
C       -0.03800000       1.48570000       0.05630000
C       -1.13560000       2.35560000       0.68290000
C       -0.48630000       3.54440000      -0.07120000
C        0.90030000       3.70900000       0.61260000
C        1.24620000       2.35810000      -0.00590000
C        0.18400000       2.50380000      -1.05900000
H        0.07160000      -2.19490000      -0.10840000
H       -2.11330000       2.09160000       0.27250000
H       -1.19420000       2.41800000       1.77540000
H       -1.07680000       4.41100000      -0.35780000
H        1.48670000       4.50870000       0.15130000
H        0.91680000       3.81850000       1.70280000
H        2.21010000       1.87520000      -0.09660000
H        0.19230000       2.37330000      -2.13100000
