13
Properties=species:S:1:pos:R:3 gdb_12302=T pbc="F F F"
N       -0.13180000       1.18490000      -0.48250000
C       -0.05540000       0.01230000      -0.02420000
O       -1.18940000      -0.62650000       0.35260000
C       -1.01430000      -1.84050000       1.07870000
C       -0.00380000      -2.71750000       0.38040000
O        1.26880000      -2.05270000       0.32000000
C        1.28380000      -0.72630000       0.08250000
O        2.32240000      -0.14220000      -0.05360000
H        0.81020000       1.49950000      -0.72020000
H       -0.69150000      -1.62450000       2.10590000
H       -1.99470000      -2.32040000       1.11300000
H        0.16780000      -3.64780000       0.92610000
H       -0.33420000      -2.95650000      -0.63710000
