18
Properties=species:S:1:pos:R:3 gdb_13799=T pbc="F F F"
C        0.14600000       1.35000000       0.06610000
O       -0.44810000       0.24200000      -0.58260000
C        0.44650000      -0.48700000      -1.34860000
C        1.39590000      -1.45350000      -0.71340000
C        0.19600000      -1.97860000      -1.48050000
C       -0.93100000      -2.58300000      -0.69050000
C       -2.03380000      -3.22330000      -1.51270000
O       -0.96360000      -2.55300000       0.51860000
H        0.94450000       1.03630000       0.75210000
H        0.56750000       2.06450000      -0.65740000
H       -0.64320000       1.84510000       0.63560000
H        0.77970000       0.02420000      -2.25450000
H        2.38470000      -1.58410000      -1.13780000
H        1.31050000      -1.58140000       0.36060000
H        0.34200000      -2.38890000      -2.47450000
H       -1.62920000      -4.04160000      -2.11980000
H       -2.81470000      -3.60580000      -0.85480000
H       -2.45820000      -2.49000000      -2.20790000
