14
Properties=species:S:1:pos:R:3 gdb_133510=T pbc="F F F"
F        0.13060000       0.16400000       0.01560000
C       -0.09020000       1.46780000       0.03260000
F        1.10550000       2.09300000      -0.04190000
F       -0.77690000       1.79980000      -1.06740000
C       -0.82280000       1.91960000       1.29900000
N       -0.91770000       1.10010000       2.26210000
N       -1.36740000       3.19400000       1.19190000
C       -0.59290000       4.40580000       0.95910000
C       -1.29340000       4.17020000       2.26090000
H       -1.40960000       1.52490000       3.05150000
H        0.48860000       4.31940000       0.94730000
H       -1.01380000       5.09200000       0.23070000
H       -2.21680000       4.69470000       2.48640000
H       -0.67770000       3.92330000       3.12360000
