15
Properties=species:S:1:pos:R:3 gdb_34839=T pbc="F F F"
N       -0.04050000      -1.22430000      -0.06210000
C       -0.02260000      -0.06900000      -0.02340000
C       -0.01280000       1.38340000       0.01300000
C        0.05780000       2.10020000       1.40630000
C        1.53700000       1.62850000       1.51280000
C        1.36860000       2.12540000       0.04770000
C        0.60800000       3.35640000       0.64850000
C       -0.28600000       4.12830000      -0.19960000
N       -0.99220000       4.75240000      -0.86940000
H       -0.74780000       1.78380000      -0.68870000
H       -0.71360000       2.09530000       2.17430000
H        2.19160000       2.22050000       2.15530000
H        1.69700000       0.55890000       1.64730000
H        2.10840000       2.14960000      -0.75070000
H        1.22470000       4.02190000       1.25580000
