21
Properties=species:S:1:pos:R:3 gdb_70089=T pbc="F F F"
C       -0.08270000       1.48100000      -0.01220000
C        0.05120000      -0.02440000       0.01170000
C       -0.76190000      -0.81210000       1.00840000
C        0.75270000      -0.75920000       1.14110000
C        1.45100000      -1.90740000       0.50070000
C        1.23250000      -1.94310000      -0.81500000
C        0.42970000      -0.74630000      -1.30090000
C       -0.77120000      -1.12090000      -2.17710000
O        1.27290000       0.16330000      -2.03010000
H        0.82520000       1.95070000      -0.39600000
H       -0.91710000       1.79670000      -0.64950000
H       -0.27490000       1.86400000       0.99490000
H       -1.35260000      -0.23130000       1.71070000
H       -1.20180000      -1.76350000       0.72900000
H        1.19440000      -0.24090000       1.98530000
H        2.01710000      -2.64100000       1.06460000
H        1.57190000      -2.71730000      -1.49600000
H       -1.46620000      -1.78310000      -1.65440000
H       -1.30730000      -0.21790000      -2.48420000
H       -0.43670000      -1.63940000      -3.08400000
H        1.59410000      -0.30080000      -2.81020000
