17
Properties=species:S:1:pos:R:3 gdb_126290=T pbc="F F F"
C       -0.14270000       1.56240000      -0.00430000
C        0.03160000       0.03320000       0.01990000
C        0.77870000      -0.49370000      -1.17770000
C        2.07780000      -0.89920000      -1.16830000
C        2.72040000      -1.35780000      -2.38740000
O        3.88170000      -1.73870000      -2.47970000
C        1.81080000      -1.32260000      -3.55060000
N        0.57310000      -0.93680000      -3.53720000
N        0.08250000      -0.52990000      -2.35280000
H        0.82950000       2.06260000      -0.02270000
H       -0.70320000       1.89110000      -0.88510000
H       -0.68590000       1.89860000       0.88310000
H        0.57850000      -0.26400000       0.91830000
H       -0.95180000      -0.45120000       0.07680000
H        2.65020000      -0.88260000      -0.24840000
H        2.19990000      -1.64910000      -4.51050000
H       -0.88400000      -0.24810000      -2.38750000
