13
Properties=species:S:1:pos:R:3 gdb_5164=T pbc="F F F"
N       -0.17880000       1.29560000       0.01010000
C       -0.03450000       0.04630000       0.00350000
O       -1.16550000      -0.72750000       0.00820000
C       -1.00590000      -2.07110000       0.00110000
N        0.09870000      -2.76380000      -0.00990000
C       -0.32380000      -4.08400000      -0.01280000
C       -1.68550000      -4.15930000      -0.00350000
N       -2.12160000      -2.84110000       0.00550000
H        0.73450000       1.74590000       0.00540000
H        0.88060000      -0.54710000      -0.00590000
H        0.38910000      -4.89330000      -0.02150000
H       -2.37530000      -4.98560000      -0.00220000
H       -3.06910000      -2.50340000       0.01380000
