18
Properties=species:S:1:pos:R:3 gdb_56832=T pbc="F F F"
C        0.09290000       1.51020000      -0.12730000
C        0.03670000      -0.03150000      -0.15480000
C        0.69630000      -0.55280000      -1.35820000
N        1.22610000      -0.96680000      -2.29840000
C        0.69450000      -0.63630000       1.09320000
C       -0.01940000      -0.69570000       2.47640000
C       -0.93460000      -1.84350000       1.98490000
C        0.51860000      -2.11830000       1.52830000
O        0.97540000      -1.71340000       2.88030000
H        1.12780000       1.85970000      -0.07870000
H       -0.37080000       1.93560000      -1.02040000
H       -0.43940000       1.88330000       0.75190000
H       -1.01320000      -0.33770000      -0.21480000
H        1.73330000      -0.30950000       1.18410000
H       -0.22840000       0.10840000       3.18250000
H       -1.29160000      -2.50380000       2.77510000
H       -1.70250000      -1.63880000       1.23610000
H        0.95630000      -3.01720000       1.09560000
