20
Properties=species:S:1:pos:R:3 gdb_121342=T pbc="F F F"
O        0.02690000       1.39280000       0.18150000
C        0.00120000      -0.02550000       0.08340000
C       -1.44930000      -0.47040000      -0.07190000
N       -2.06340000      -0.05600000      -1.31470000
C       -2.53350000       1.29790000      -1.57930000
C       -3.36560000       1.13400000      -2.86930000
C       -2.75290000      -0.10050000      -3.54870000
C       -2.12970000      -0.89290000      -2.39830000
O       -1.74070000      -2.04460000      -2.42260000
H        0.94470000       1.67880000       0.19790000
H        0.58110000      -0.38140000      -0.78050000
H        0.41850000      -0.49590000       0.98800000
H       -1.48570000      -1.56320000      -0.05120000
H       -2.03480000      -0.07840000       0.76860000
H       -3.12790000       1.66950000      -0.73720000
H       -1.69060000       1.98670000      -1.70920000
H       -4.41030000       0.93680000      -2.61040000
H       -3.34150000       2.03230000      -3.48950000
H       -3.46570000      -0.71890000      -4.09680000
H       -1.95040000       0.16720000      -4.24640000
