20
Properties=species:S:1:pos:R:3 gdb_46383=T pbc="F F F"
O        0.29520000      -0.06060000      -0.29290000
C        0.11050000       1.11420000      -0.10100000
C       -1.10320000       2.04210000       0.14380000
C       -0.05210000       3.18270000       0.26420000
N        0.97730000       2.17600000      -0.01310000
C        2.42180000       2.22990000      -0.06520000
C        3.08330000       2.33010000       1.29520000
C        3.21810000       1.08960000       2.14000000
C        4.43990000       1.70600000       1.50470000
H       -1.78940000       2.12130000      -0.70110000
H       -1.66410000       1.81810000       1.05270000
H       -0.11800000       3.97080000      -0.49430000
H        0.02270000       3.64060000       1.25670000
H        2.74100000       1.30750000      -0.56280000
H        2.72670000       3.06940000      -0.70410000
H        2.89530000       3.26100000       1.82400000
H        3.09570000       1.18130000       3.21340000
H        2.83870000       0.16170000       1.72480000
H        4.89320000       1.18640000       0.66660000
H        5.15030000       2.22170000       2.14120000
