16
Properties=species:S:1:pos:R:3 gdb_29155=T pbc="F F F"
N        0.02110000       1.46150000       0.16830000
C       -0.00410000       0.05670000       0.03980000
C       -1.16050000      -0.66120000       0.01430000
N       -1.10250000      -2.04360000      -0.01700000
C        0.03990000      -2.80520000      -0.05500000
O        0.02100000      -4.03670000      -0.06760000
C        1.28060000      -2.01770000      -0.06090000
N        2.41450000      -2.78880000      -0.15930000
C        1.23670000      -0.65200000       0.00540000
H        0.72790000       1.89060000      -0.41650000
H       -0.87410000       1.88970000      -0.03050000
H       -2.14910000      -0.22310000       0.02970000
H       -1.95890000      -2.57820000      -0.00600000
H        2.23200000      -3.76530000       0.03480000
H        3.27090000      -2.41840000       0.21950000
H        2.16070000      -0.08020000       0.03740000
