18
Properties=species:S:1:pos:R:3 gdb_30433=T pbc="F F F"
C       -0.03060000       1.40830000       0.07600000
N        0.02080000      -0.03980000       0.00030000
C        0.63990000      -0.66320000       0.91130000
O        1.26490000      -0.09290000       2.01670000
C        1.77130000      -1.11160000       2.79510000
N        2.50940000      -0.69610000       3.89360000
C        1.50180000      -2.29470000       2.22530000
N        0.82880000      -2.02010000       1.01720000
C        0.25120000      -2.98140000       0.11170000
H        0.96460000       1.87070000      -0.00310000
H       -0.63890000       1.78640000      -0.75020000
H       -0.47700000       1.76990000       1.01440000
H        2.03100000       0.02030000       4.42960000
H        2.76420000      -1.46730000       4.49640000
H        1.73900000      -3.29730000       2.53320000
H       -0.58330000      -3.52680000       0.57210000
H       -0.12250000      -2.43000000      -0.75210000
H        1.00410000      -3.70550000      -0.21840000
