20
Properties=species:S:1:pos:R:3 gdb_111225=T pbc="F F F"
C        0.04650000       1.55170000       0.03930000
C       -0.08840000       0.02940000      -0.08500000
C        0.69540000      -0.54200000      -1.26440000
C        2.23460000      -0.67400000      -1.07250000
C        1.98700000      -2.07140000      -0.45760000
C        0.74110000      -2.10230000      -1.39280000
N        1.19120000      -2.44500000      -2.74950000
C        2.20660000      -1.77880000      -3.11410000
O        2.84730000      -0.83910000      -2.37250000
H        1.08700000       1.85260000       0.20140000
H       -0.30370000       2.05330000      -0.86920000
H       -0.54260000       1.93210000       0.87920000
H        0.22040000      -0.44210000       0.85520000
H       -1.14590000      -0.23250000      -0.21810000
H        0.40230000      -0.02900000      -2.18630000
H        2.81760000       0.08670000      -0.55360000
H        2.75070000      -2.83550000      -0.61370000
H        1.72800000      -2.00810000       0.59930000
H       -0.13450000      -2.69180000      -1.11870000
H        2.67400000      -1.90610000      -4.08700000
