23
Properties=species:S:1:pos:R:3 gdb_123019=T pbc="F F F"
C       -0.00530000       1.47070000       0.21650000
C       -0.18060000      -0.03320000       0.44360000
C        0.99760000      -0.66290000       1.19400000
C        0.82180000      -2.15780000       1.41460000
O        1.97270000      -2.65410000       2.09890000
C        1.90730000      -4.03150000       2.33500000
C        2.83930000      -4.55240000       3.39750000
C        1.35590000      -4.43340000       3.68080000
O        0.88550000      -3.42410000       4.52110000
H        0.89670000       1.67970000      -0.36900000
H       -0.85840000       1.89400000      -0.32260000
H        0.08720000       2.00630000       1.16760000
H       -1.10800000      -0.21320000       1.00300000
H       -0.30760000      -0.53680000      -0.52380000
H        1.92950000      -0.49830000       0.63950000
H        1.12510000      -0.17260000       2.16770000
H       -0.08460000      -2.36710000       2.00180000
H        0.71640000      -2.67900000       0.44960000
H        1.71050000      -4.63440000       1.44850000
H        3.28220000      -5.53270000       3.25940000
H        3.48390000      -3.81990000       3.87240000
H        0.76220000      -5.33620000       3.77770000
H        1.22610000      -2.59590000       4.15690000
