14
Properties=species:S:1:pos:R:3 gdb_22026=T pbc="F F F"
N        0.03120000       1.29600000      -0.23310000
C        0.02570000      -0.05560000      -0.07850000
N       -1.10930000      -0.68860000       0.03890000
N       -1.02760000      -2.03780000       0.12870000
N        0.05240000      -2.79270000       0.12200000
C        1.20310000      -2.18010000       0.02420000
C        1.31400000      -0.74700000      -0.07930000
N        2.38050000      -0.01600000      -0.16210000
O        3.53860000      -0.81500000      -0.12880000
H        0.91530000       1.74910000      -0.06320000
H       -0.81350000       1.79370000      -0.00400000
H       -1.90870000      -2.51570000       0.20600000
H        2.08640000      -2.80210000       0.02240000
H        4.24010000      -0.16220000      -0.21810000
