19
Properties=species:S:1:pos:R:3 gdb_107205=T pbc="F F F"
C       -0.32930000       1.46870000       0.14110000
C        0.17200000       0.03940000      -0.10640000
C        0.91950000      -0.53010000       1.07480000
C        2.27540000       0.05600000       1.49860000
C        3.01310000      -1.07760000       2.20600000
O        2.40140000      -1.54950000       3.40680000
C        2.17030000      -2.28730000       2.20660000
C        0.86400000      -1.94080000       1.51410000
O        0.10390000      -0.93430000       2.18550000
H        0.50080000       2.16250000       0.30960000
H       -0.90000000       1.83580000      -0.71680000
H       -0.97830000       1.49960000       1.02120000
H       -0.67880000      -0.61660000      -0.32020000
H        0.82410000       0.01720000      -0.98890000
H        2.84140000       0.36490000       0.61210000
H        2.15910000       0.93150000       2.14450000
H        4.10070000      -1.10480000       2.20020000
H        2.55500000      -3.30280000       2.18160000
H        0.29530000      -2.71090000       0.99920000
