18
Properties=species:S:1:pos:R:3 gdb_90052=T pbc="F F F"
C       -0.51980000       1.49860000      -0.07950000
C       -0.00060000       0.06950000      -0.00700000
C        1.19900000      -0.34400000      -0.95920000
C        2.06610000      -0.40110000       0.30850000
N        2.30900000       1.00270000       0.88970000
C        1.92990000       0.20890000       2.09730000
C        0.82950000      -0.45930000       1.25100000
C        2.89690000      -0.94270000       1.51610000
O        3.76040000      -1.69060000       1.82870000
H        0.29280000       2.22150000      -0.01290000
H       -1.06120000       1.65760000      -1.01950000
H       -1.21930000       1.69210000       0.74110000
H       -0.84090000      -0.61810000      -0.13530000
H        1.04320000      -1.31950000      -1.42530000
H        1.51660000       0.37920000      -1.71300000
H        3.30570000       1.23190000       0.87870000
H        1.91840000       0.63400000       3.10210000
H        0.48990000      -1.43630000       1.59680000
