19
Properties=species:S:1:pos:R:3 gdb_95437=T pbc="F F F"
C       -0.10590000       1.59920000      -0.08610000
C        0.04010000       0.07230000      -0.02130000
C        0.90350000      -0.47410000      -1.20090000
N        1.71580000      -1.54330000      -0.59740000
C        1.72040000      -1.35430000       0.76450000
C        0.78570000      -0.48090000       1.19290000
C        0.52780000      -0.27660000       2.62350000
N       -0.62070000       0.43210000       2.94000000
O        1.27850000      -0.67630000       3.50220000
H        0.87670000       2.07910000      -0.03130000
H       -0.58340000       1.90400000      -1.02410000
H       -0.70590000       1.98850000       0.74000000
H       -0.96560000      -0.37370000      -0.08080000
H        0.30150000      -0.85780000      -2.02920000
H        1.54590000       0.32820000      -1.59210000
H        2.57900000      -1.80050000      -1.05240000
H        2.38840000      -1.92550000       1.39560000
H       -1.38980000       0.43820000       2.28910000
H       -0.87360000       0.39270000       3.91610000
