15
Properties=species:S:1:pos:R:3 gdb_15096=T pbc="F F F"
C        0.07740000      -3.68600000       0.26290000
C        0.05340000      -2.48580000       0.13230000
C        0.02490000      -1.13330000      -0.01520000
C       -0.00090000       0.06940000      -0.14530000
C       -0.01750000       1.51720000      -0.30880000
C        1.36830000       2.14610000      -0.24660000
C        1.52410000       3.52270000       0.28160000
N        2.03190000       2.36590000       1.04180000
H        0.10060000      -4.74110000       0.37730000
H       -0.48530000       1.76810000      -1.27110000
H       -0.65500000       1.96760000       0.46510000
H        2.04350000       1.80510000      -1.02800000
H        2.28950000       4.18090000      -0.11910000
H        0.63180000       4.03290000       0.63710000
H        1.39820000       2.14120000       1.80570000
