19
Properties=species:S:1:pos:R:3 gdb_74923=T pbc="F F F"
C        0.09730000       1.48160000       0.05770000
C       -0.06260000      -0.00240000      -0.02710000
C       -0.12330000      -0.76810000      -1.13240000
C       -0.03230000      -2.20390000      -0.71030000
O        1.36060000      -2.38790000      -0.18600000
C        0.86850000      -2.15480000       1.10820000
C       -0.07700000      -0.88770000       1.16700000
C       -0.57070000      -2.26070000       0.76040000
C       -1.74530000      -3.00970000       1.30850000
H        1.05940000       1.74710000       0.51360000
H        0.05230000       1.94590000      -0.93090000
H       -0.68160000       1.93330000       0.68460000
H       -0.03210000      -0.42560000      -2.15540000
H       -0.27450000      -2.99310000      -1.42090000
H        1.47660000      -2.46460000       1.95050000
H       -0.30200000      -0.51320000       2.16030000
H       -2.68790000      -2.61200000       0.91480000
H       -1.69590000      -4.07520000       1.05790000
H       -1.78040000      -2.92490000       2.39960000
