18
Properties=species:S:1:pos:R:3 gdb_15670=T pbc="F F F"
C       -0.44830000       0.83230000       0.25070000
O        0.59410000      -0.12230000       0.13980000
C        0.90660000      -0.48280000      -1.19930000
C        2.39270000      -0.90700000      -1.25820000
C        2.34640000      -2.40790000      -1.39420000
C        1.11350000      -2.86400000      -1.59820000
C        0.08430000      -1.75900000      -1.62930000
O       -1.03450000      -1.99920000      -0.79390000
H       -0.18280000       1.76830000      -0.26290000
H       -1.39210000       0.45480000      -0.16050000
H       -0.57660000       1.04040000       1.31620000
H        0.69920000       0.36780000      -1.85960000
H        2.90410000      -0.44330000      -2.11140000
H        2.91480000      -0.57100000      -0.35580000
H        3.24140000      -3.01910000      -1.34650000
H        0.82760000      -3.90110000      -1.73210000
H       -0.32950000      -1.63150000      -2.63700000
H       -0.70720000      -1.88290000       0.10780000
