14
Properties=species:S:1:pos:R:3 gdb_44825=T pbc="F F F"
O       -0.41460000       0.04680000      -0.34580000
C       -0.22930000       1.19540000      -0.08750000
C       -1.16140000       2.39800000       0.26230000
C        0.07290000       3.28410000       0.04640000
O        1.03220000       2.86380000       1.01160000
C        0.97620000       2.13340000      -0.22880000
C        2.23270000       1.99100000      -1.04090000
C        3.19370000       1.06530000      -0.43600000
N        3.95820000       0.34030000       0.03590000
H       -1.95260000       2.50000000      -0.48610000
H       -1.58400000       2.43080000       1.26760000
H        0.13990000       4.29370000      -0.33980000
H        1.98130000       1.62950000      -2.04440000
H        2.70840000       2.97140000      -1.14910000
