16
Properties=species:S:1:pos:R:3 gdb_4776=T pbc="F F F"
C        0.00400000       1.56130000       0.18660000
C       -0.04560000       0.05120000      -0.10400000
C       -1.43120000      -0.49390000      -0.16840000
C       -2.16180000      -1.06890000      -1.16530000
C       -3.44390000      -1.37400000      -0.59790000
O       -4.51360000      -1.95800000      -1.20320000
C       -3.40400000      -0.96400000       0.69810000
O       -2.17290000      -0.42420000       0.96660000
H        1.03930000       1.91020000       0.24550000
H       -0.50510000       2.12750000      -0.59930000
H       -0.48780000       1.78770000       1.13640000
H        0.44660000      -0.16630000      -1.05730000
H        0.52030000      -0.48350000       0.67000000
H       -1.83190000      -1.25520000      -2.17660000
H       -4.28310000      -2.14930000      -2.11640000
H       -4.11370000      -0.98330000       1.50560000
