20
Properties=species:S:1:pos:R:3 gdb_65277=T pbc="F F F"
C        0.25720000       1.55090000      -0.10250000
C        0.12690000       0.03720000      -0.12070000
C        1.40220000      -0.78570000      -0.09900000
C        0.53260000      -0.72570000       1.12720000
N       -0.93510000      -0.59230000      -0.84310000
C       -1.82580000      -0.01970000      -1.50270000
C       -3.00640000      -0.51460000      -2.31560000
C       -3.25530000       0.98570000      -2.56550000
O       -2.09210000       1.32760000      -1.75740000
H        1.12400000       1.84410000       0.49780000
H        0.38970000       1.95210000      -1.11120000
H       -0.63070000       2.02260000       0.32770000
H        1.40020000      -1.70350000      -0.67400000
H        2.34410000      -0.24780000      -0.09470000
H        0.87400000      -0.14630000       1.97830000
H       -0.05220000      -1.60320000       1.37410000
H       -2.74210000      -1.10910000      -3.19200000
H       -3.77180000      -1.03810000      -1.73990000
H       -3.13310000       1.33240000      -3.59490000
H       -4.16860000       1.40390000      -2.13450000
