19
Properties=species:S:1:pos:R:3 gdb_96612=T pbc="F F F"
C        0.13390000       1.45260000      -0.46520000
N        0.33100000       0.06600000      -0.08080000
H       -0.07160000      -0.70190000      -0.65720000
C        0.73950000      -0.52950000       1.02250000
N        1.36770000       0.04630000       2.04070000
C        1.92260000       1.40070000       2.01020000
C        1.56890000      -0.62870000       3.33080000
C        0.40670000      -2.13530000       0.89130000
O       -0.16470000      -2.35170000      -0.18950000
O        0.76470000      -2.85880000       1.81460000
H        1.01730000       1.88500000      -0.94810000
H       -0.68660000       1.48350000      -1.18560000
H       -0.14420000       2.07270000       0.38920000
H        2.12470000       1.72110000       0.99140000
H        1.26090000       2.12360000       2.50090000
H        2.87100000       1.38870000       2.55470000
H        2.64220000      -0.70870000       3.53480000
H        1.11010000      -0.02020000       4.11880000
H        1.13310000      -1.62330000       3.28300000
