21
Properties=species:S:1:pos:R:3 gdb_61638=T pbc="F F F"
C       -0.00680000       1.33740000       0.48910000
C        0.05140000      -0.09740000      -0.03190000
O        0.70150000      -1.01620000       0.83030000
C        2.09720000      -0.97650000       0.80260000
C        2.85410000      -0.12980000       1.79940000
C        2.81840000      -1.64130000       1.93640000
C        2.05130000      -2.28800000       3.06900000
C       -1.34020000      -0.67730000      -0.27240000
O       -2.28100000      -0.03870000      -0.66340000
H        0.98490000       1.79360000       0.50530000
H       -0.66200000       1.92480000      -0.15880000
H       -0.41920000       1.35280000       1.50220000
H        0.55070000      -0.10610000      -1.01920000
H        2.51200000      -1.07650000      -0.20180000
H        3.77130000       0.35830000       1.48730000
H        2.25640000       0.43350000       2.50780000
H        3.73020000      -2.16080000       1.65370000
H        1.11940000      -1.75330000       3.26520000
H        1.79340000      -3.32500000       2.82890000
H        2.64610000      -2.29350000       3.98840000
H       -1.40130000      -1.76800000      -0.06530000
