16
Properties=species:S:1:pos:R:3 gdb_128383=T pbc="F F F"
C        0.02840000       1.30480000      -0.20160000
N        0.00320000      -0.13400000       0.00630000
C       -1.19180000      -0.79410000       0.00010000
N       -2.37250000      -0.22380000       0.02150000
O       -3.27790000      -1.27720000       0.05610000
N       -2.64160000      -2.47890000       0.03100000
C       -1.36660000      -2.22090000       0.00860000
C       -0.29030000      -3.25890000      -0.01640000
O        0.70220000      -2.95010000      -0.99550000
H        1.05840000       1.65560000      -0.11220000
H       -0.37000000       1.60210000      -1.18160000
H       -0.57600000       1.79430000       0.56640000
H        0.75090000      -0.67230000      -0.40840000
H        0.24530000      -3.27020000       0.93880000
H       -0.73120000      -4.25120000      -0.16710000
H        0.29150000      -3.02680000      -1.86390000
