17
Properties=species:S:1:pos:R:3 gdb_15232=T pbc="F F F"
C        0.23120000       1.49180000       0.13640000
C       -0.18900000       0.04330000      -0.13890000
C        0.57990000      -0.55800000      -1.29690000
C        1.92620000      -1.17460000      -1.09580000
O        2.41520000      -1.18750000       0.20190000
C        0.73680000      -2.07570000      -1.45660000
C        0.23760000      -2.97150000      -0.45650000
N       -0.13940000      -3.71280000       0.34880000
H        1.28730000       1.54150000       0.41720000
H        0.08460000       2.12660000      -0.74460000
H       -0.35740000       1.91740000       0.95440000
H       -0.03210000      -0.56220000       0.75710000
H       -1.26050000      -0.00190000      -0.36710000
H        0.44670000      -0.04360000      -2.24540000
H        2.67600000      -1.05370000      -1.87730000
H        2.80410000      -2.05000000       0.38530000
H        0.70630000      -2.47570000      -2.46470000
