20
Properties=species:S:1:pos:R:3 gdb_112868=T pbc="F F F"
C       -0.01100000       1.50990000       0.16600000
C        0.01520000       0.01070000      -0.06190000
C        0.94030000      -0.48730000      -1.18170000
C        1.35600000      -1.87980000      -0.68740000
C        2.73680000      -2.37980000      -1.13900000
O        3.02580000      -3.66030000      -0.63920000
C        1.27160000      -1.71660000       0.81800000
N        1.84370000      -2.47460000       1.65820000
O        0.51910000      -0.63620000       1.13810000
H        0.99810000       1.88740000       0.35690000
H       -0.41000000       2.01540000      -0.71910000
H       -0.64400000       1.76330000       1.02040000
H       -1.00560000      -0.36190000      -0.22200000
H        0.44420000      -0.49760000      -2.15430000
H        1.81810000       0.16670000      -1.25460000
H        0.61190000      -2.63100000      -0.98290000
H        2.76220000      -2.44300000      -2.23300000
H        3.49420000      -1.63530000      -0.83660000
H        2.88760000      -3.60350000       0.32220000
H        1.66520000      -2.17860000       2.61790000
