15
Properties=species:S:1:pos:R:3 gdb_33679=T pbc="F F F"
N       -0.07340000      -1.11230000      -0.19010000
C       -0.05510000       0.03760000      -0.06060000
C        0.01540000       1.44790000       0.10530000
C       -0.91140000       2.34630000       0.83120000
C       -0.08590000       3.27060000       1.71590000
O        1.27960000       3.03400000       1.34940000
C        1.24750000       2.40400000       0.08930000
C        0.44840000       3.23110000      -0.94510000
N       -0.81970000       2.47120000      -0.64730000
H       -1.87580000       1.98650000       1.16930000
H       -0.35100000       4.32530000       1.56660000
H       -0.21450000       3.02890000       2.77560000
H        2.23810000       2.02830000      -0.15790000
H        0.39580000       4.31070000      -0.77930000
H        0.73210000       3.02590000      -1.97900000
