19
Properties=species:S:1:pos:R:3 gdb_88734=T pbc="F F F"
C        0.23990000       1.50840000      -0.12350000
C        0.25330000       0.01110000       0.06840000
N        1.56090000      -0.66390000       0.11620000
C        0.71440000      -0.66580000       1.31350000
C        1.21400000       0.06240000       2.53290000
C        2.29170000      -0.55950000       3.38190000
N        2.54410000       0.63630000       2.62080000
C        3.53590000       0.73830000       1.65190000
O        4.61970000       0.21710000       1.74580000
H        0.99320000       2.00130000       0.49520000
H        0.44010000       1.76530000      -1.16870000
H       -0.74040000       1.91830000       0.14230000
H       -0.53850000      -0.51280000      -0.46630000
H        1.54180000      -1.56300000      -0.35470000
H        0.19840000      -1.59240000       1.56460000
H        0.44850000       0.64410000       3.04620000
H        2.26530000      -0.45150000       4.46290000
H        2.75350000      -1.47310000       3.01450000
H        3.26230000       1.43620000       0.84540000
