18
Properties=species:S:1:pos:R:3 gdb_59290=T pbc="F F F"
C       -0.00120000       1.10390000       1.14870000
C       -0.10730000       0.39940000      -0.20510000
O        0.90470000      -0.58410000      -0.36520000
C       -1.51810000      -0.21030000      -0.43600000
C       -1.89050000      -0.53930000      -1.86030000
C       -2.25520000      -1.82140000      -1.92950000
N       -2.16790000      -2.43930000      -0.66790000
C       -1.64560000      -1.57570000       0.26990000
O       -1.30990000      -1.86900000       1.40000000
H        1.01440000       1.48430000       1.28840000
H       -0.69890000       1.94580000       1.21120000
H       -0.23550000       0.40520000       1.95740000
H        0.07500000       1.12320000      -1.00760000
H        0.85050000      -1.16640000       0.40320000
H       -2.26240000       0.46710000       0.00640000
H       -1.89220000       0.16730000      -2.67650000
H       -2.60340000      -2.39640000      -2.77540000
H       -2.23510000      -3.43000000      -0.49980000
