19
Properties=species:S:1:pos:R:3 gdb_126212=T pbc="F F F"
C        0.27720000       1.27900000       0.14030000
C       -0.06410000      -0.19110000      -0.16680000
C       -1.53260000      -0.48170000      -0.13180000
C       -2.48870000      -0.52690000      -1.13740000
C       -2.28390000      -0.29900000      -2.59960000
O       -1.24890000      -1.16500000      -3.07190000
C       -3.69380000      -0.83460000      -0.46800000
N       -3.52480000      -0.96920000       0.84310000
N       -2.20520000      -0.74950000       1.01670000
H        1.35850000       1.44180000       0.09570000
H       -0.19780000       1.95060000      -0.58110000
H       -0.06770000       1.56910000       1.13790000
H        0.30090000      -0.46110000      -1.16080000
H        0.45690000      -0.84250000       0.54660000
H       -3.23030000      -0.49000000      -3.12800000
H       -2.01460000       0.75130000      -2.79760000
H       -1.07430000      -0.93830000      -3.99100000
H       -4.67700000      -0.96490000      -0.89860000
H       -1.81850000      -0.82770000       1.94280000
