20
Properties=species:S:1:pos:R:3 gdb_124532=T pbc="F F F"
C        0.01750000       1.56160000       0.19350000
C       -0.04850000       0.03370000       0.01520000
C        0.82430000      -0.68470000       1.05920000
C       -1.46750000      -0.45980000       0.05150000
N       -2.05890000      -0.99110000      -1.02440000
N       -3.28760000      -1.28450000      -0.61000000
C       -4.25340000      -1.93640000      -1.46900000
N       -3.55070000      -0.99460000       0.65810000
C       -2.40770000      -0.46610000       1.09890000
H        1.05130000       1.91450000       0.11860000
H       -0.57540000       2.07420000      -0.56940000
H       -0.36750000       1.86050000       1.17480000
H        0.33500000      -0.21120000      -0.98150000
H        0.47540000      -0.47650000       2.07680000
H        0.80530000      -1.76870000       0.91390000
H        1.86380000      -0.34800000       0.98920000
H       -3.99940000      -2.99200000      -1.60470000
H       -5.22940000      -1.85230000      -0.99290000
H       -4.26220000      -1.44310000      -2.44250000
H       -2.31870000      -0.12010000       2.11640000
