19
Properties=species:S:1:pos:R:3 gdb_89324=T pbc="F F F"
C        0.02710000       1.55200000       0.04330000
C       -0.02910000       0.05350000       0.05100000
C        1.13020000      -0.81740000      -0.32250000
C        0.56840000      -0.94260000       1.08310000
C        1.34290000      -0.69880000       2.24920000
C        2.00200000      -0.47810000       3.23230000
C       -0.70780000      -1.79730000       1.01410000
O       -1.35880000      -1.80930000       2.26190000
C       -1.31190000      -0.78650000      -0.01790000
H        1.01490000       1.90770000       0.35260000
H       -0.17340000       1.94920000      -0.95930000
H       -0.71350000       1.97920000       0.72780000
H        1.00880000      -1.64360000      -1.02110000
H        2.09550000      -0.32520000      -0.37500000
H        2.57460000      -0.28930000       4.10570000
H       -0.54720000      -2.82030000       0.64080000
H       -2.18610000      -2.29110000       2.16080000
H       -2.16750000      -0.27950000       0.43500000
H       -1.59120000      -1.16870000      -1.00610000
