18
Properties=species:S:1:pos:R:3 gdb_79791=T pbc="F F F"
O        0.12440000       1.42400000       0.18700000
C        0.00840000       0.03630000       0.02610000
C       -1.38290000      -0.63720000      -0.14760000
C       -1.95950000       0.04780000      -1.38910000
C       -2.72460000      -1.02390000      -2.18640000
C       -1.31690000      -1.58690000      -2.37050000
C       -0.66530000      -1.78580000      -0.98190000
C        0.32280000      -0.63340000      -1.30910000
N       -0.73350000      -0.16570000      -2.31660000
H       -0.14900000       1.84380000      -0.63600000
H        0.57300000      -0.43120000       0.83870000
H       -2.04200000      -0.83320000       0.69710000
H       -2.33570000       1.06660000      -1.28690000
H       -3.47550000      -1.62160000      -1.66370000
H       -3.12640000      -0.63040000      -3.12300000
H       -1.02420000      -2.23550000      -3.19690000
H       -0.41940000      -2.73540000      -0.51050000
H        1.32040000      -0.72930000      -1.73530000
