19
Properties=species:S:1:pos:R:3 gdb_133797=T pbc="F F F"
C       -0.03950000       1.58770000       0.04470000
C        0.01900000       0.05830000       0.03420000
C        0.66620000      -0.49640000      -1.23860000
C        0.68570000      -2.03000000      -1.28670000
N       -0.66830000      -2.57230000      -1.32190000
C        1.53560000      -2.52580000      -2.46030000
F        2.80690000      -2.10330000      -2.38120000
F        1.56430000      -3.87080000      -2.49950000
F        1.04170000      -2.10680000      -3.63950000
H        0.96180000       2.02680000      -0.02910000
H       -0.62830000       1.96750000      -0.79790000
H       -0.49930000       1.96040000       0.96510000
H        0.58420000      -0.29420000       0.90720000
H       -0.98750000      -0.36010000       0.13280000
H        0.13090000      -0.12510000      -2.12280000
H        1.69490000      -0.12960000      -1.32620000
H        1.18090000      -2.41270000      -0.38540000
H       -1.12520000      -2.28680000      -2.18430000
H       -0.63670000      -3.58710000      -1.33240000
