18
Properties=species:S:1:pos:R:3 gdb_128087=T pbc="F F F"
C        0.02760000       1.43040000       0.11290000
N       -0.12690000       0.00500000      -0.14630000
C        0.68240000      -0.51390000      -1.24920000
C        2.20850000      -0.53320000      -1.01370000
C        0.19100000      -1.89120000      -1.58440000
N       -0.23630000      -2.35260000      -2.72210000
C       -0.52300000      -3.65830000      -2.40490000
N       -0.29470000      -3.99860000      -1.16750000
O        0.19400000      -2.80860000      -0.60730000
H        1.04730000       1.75340000       0.38050000
H       -0.27840000       1.99390000      -0.77570000
H       -0.63990000       1.71590000       0.93070000
H        0.05420000      -0.53300000       0.69460000
H        0.46470000       0.09770000      -2.13080000
H        2.45850000      -1.17490000      -0.16290000
H        2.73580000      -0.91210000      -1.89470000
H        2.57560000       0.47550000      -0.80880000
H       -0.91390000      -4.37100000      -3.11660000
