17
Properties=species:S:1:pos:R:3 gdb_127036=T pbc="F F F"
C       -0.00020000       1.47500000      -0.09250000
C        0.01350000      -0.04070000      -0.03590000
O        0.65400000      -0.51660000      -1.22550000
C        0.75700000      -1.85550000      -1.34920000
N        0.31680000      -2.74070000      -0.46810000
N        0.64190000      -3.93260000      -1.02080000
C        1.27310000      -3.81630000      -2.22350000
C        1.36680000      -2.46660000      -2.47120000
O        1.92000000      -1.84960000      -3.55060000
H        1.01790000       1.87170000      -0.14330000
H       -0.55150000       1.82680000      -0.96930000
H       -0.48300000       1.87720000       0.80300000
H        0.56120000      -0.40960000       0.83960000
H       -1.00070000      -0.45440000       0.01660000
H        0.40570000      -4.77450000      -0.52900000
H        1.59830000      -4.66980000      -2.79450000
H        1.82040000      -0.90060000      -3.41560000
