18
Properties=species:S:1:pos:R:3 gdb_34724=T pbc="F F F"
C       -0.04000000      -1.22260000      -0.10930000
C       -0.00170000      -0.02340000      -0.03920000
C        0.01090000       1.42900000       0.05010000
C       -0.47850000       2.02220000       1.40120000
C        0.67980000       1.59880000       2.32790000
C        1.80280000       2.11480000       1.43590000
C        1.27940000       3.30460000       0.70580000
C       -0.16440000       3.51210000       1.15140000
N        1.39530000       1.99470000       0.01100000
H       -0.06480000      -2.28190000      -0.18000000
H       -0.55220000       1.84700000      -0.79220000
H       -1.48900000       1.76510000       1.71110000
H        0.64950000       2.10530000       3.29750000
H        0.72300000       0.51910000       2.48990000
H        2.85120000       1.95890000       1.65700000
H        1.90370000       4.10920000       0.33740000
H       -0.79460000       3.96020000       0.37670000
H       -0.24000000       4.12020000       2.05830000
