19
Properties=species:S:1:pos:R:3 gdb_55137=T pbc="F F F"
C        0.24650000       1.50500000      -0.04360000
C       -0.08090000       0.02530000       0.05270000
O       -0.29990000      -0.52330000       1.10590000
C       -0.13590000      -0.71690000      -1.28440000
O        0.13180000      -2.11810000      -1.15200000
C       -1.06960000      -2.71220000      -1.68700000
C       -1.32490000      -1.88690000      -2.97100000
C       -1.55790000      -0.77160000      -1.90210000
C       -2.19780000      -1.89400000      -1.01920000
H        1.30340000       1.62910000      -0.30880000
H       -0.33670000       1.99000000      -0.83430000
H        0.05770000       1.99090000       0.91420000
H        0.58410000      -0.25960000      -1.97750000
H       -0.98370000      -3.79630000      -1.65150000
H       -0.49360000      -1.77340000      -3.67120000
H       -2.24370000      -2.16310000      -3.49090000
H       -2.05320000       0.17280000      -2.12460000
H       -3.19540000      -2.16720000      -1.36640000
H       -2.15900000      -1.79160000       0.06490000
