14
Properties=species:S:1:pos:R:3 gdb_128575=T pbc="F F F"
C        0.00980000       1.41630000      -0.03680000
O        0.00390000      -0.01930000      -0.00580000
C        0.57960000      -0.65360000      -1.01230000
C        0.72530000      -1.99030000      -1.24970000
C        1.42510000      -2.01230000      -2.48440000
C        1.85470000      -3.22720000      -3.22470000
O        2.44630000      -3.22760000      -4.27230000
N        1.68100000      -0.80460000      -2.95330000
O        1.13460000       0.06340000      -2.00200000
H        1.03390000       1.79920000      -0.03930000
H       -0.51880000       1.78670000      -0.91930000
H       -0.50700000       1.72610000       0.87070000
H        0.38810000      -2.81190000      -0.64270000
H        1.57400000      -4.17340000      -2.71140000
