21
Properties=species:S:1:pos:R:3 gdb_122242=T pbc="F F F"
C       -0.32090000       1.41010000      -0.00280000
C        0.15400000      -0.04450000      -0.04350000
C        0.64620000      -0.52930000       1.31240000
O        1.06250000      -1.88430000       1.17470000
C        1.54080000      -2.46460000       2.35210000
C        0.50890000      -3.01080000       3.32890000
C        1.29710000      -3.94910000       2.45210000
C        2.77010000      -1.91570000       2.87120000
C        3.79200000      -1.44110000       3.29290000
H        0.48540000       2.08480000       0.30520000
H       -0.66900000       1.73700000      -0.98680000
H       -1.14910000       1.54100000       0.70250000
H       -0.65840000      -0.70060000      -0.37710000
H        0.96640000      -0.15950000      -0.76990000
H        1.48580000       0.08790000       1.66410000
H       -0.15410000      -0.45670000       2.06610000
H        0.73350000      -2.97040000       4.38810000
H       -0.52730000      -2.83290000       3.06480000
H        0.78930000      -4.38980000       1.60220000
H        2.07220000      -4.55790000       2.90130000
H        4.69820000      -1.03010000       3.66360000
