13
Properties=species:S:1:pos:R:3 gdb_61106=T pbc="F F F"
N       -0.06890000       1.48620000       0.02970000
C       -0.02690000       0.02890000      -0.00800000
C        0.71290000      -0.50250000       1.26190000
C        0.09340000      -0.05190000       2.50380000
N       -0.37420000       0.28280000       3.50460000
C       -1.41160000      -0.48520000      -0.03570000
N       -2.49010000      -0.89420000      -0.06590000
C        0.69260000      -0.50640000      -1.19570000
N        1.30100000      -0.85900000      -2.11230000
H        0.87090000       1.86470000      -0.04580000
H       -0.61530000       1.85150000      -0.74400000
H        0.74010000      -1.59550000       1.23550000
H        1.74880000      -0.14960000       1.22050000
