23
Properties=species:S:1:pos:R:3 gdb_91358=T pbc="F F F"
C       -0.35740000       1.51970000       0.63820000
C       -0.21170000       0.00230000       0.52780000
C        0.08650000      -0.55330000      -0.90050000
C        1.17840000      -1.60280000      -0.58930000
C        2.53360000      -0.89180000      -0.36910000
C        2.35700000      -0.35310000       1.08570000
C        2.83340000       1.07830000       1.33120000
C        0.87590000      -0.73960000       1.35360000
O        0.82980000      -2.03900000       0.73760000
H        0.46100000       2.05920000       0.15620000
H       -1.28490000       1.84300000       0.15370000
H       -0.40520000       1.84520000       1.68330000
H       -1.15380000      -0.44120000       0.86820000
H       -0.79810000      -1.01410000      -1.34710000
H        0.44210000       0.22180000      -1.58670000
H        1.20460000      -2.46330000      -1.25820000
H        3.37050000      -1.59070000      -0.44190000
H        2.70260000      -0.09090000      -1.09570000
H        2.92820000      -1.00590000       1.75470000
H        2.45310000       1.78360000       0.58890000
H        2.53410000       1.43850000       2.32170000
H        3.92680000       1.12190000       1.28550000
H        0.63280000      -0.83080000       2.41450000
