15
Properties=species:S:1:pos:R:3 gdb_7937=T pbc="F F F"
C       -0.06240000       1.39760000      -0.06710000
N       -0.01650000      -0.04260000      -0.04870000
C       -1.18560000      -0.89740000      -0.03340000
C       -0.59220000      -2.30180000      -0.01680000
N       -1.29130000      -3.36000000       0.00020000
N        0.77760000      -2.10970000      -0.02470000
C        1.15430000      -0.75540000      -0.04350000
O        2.28840000      -0.33530000      -0.05280000
H        0.96650000       1.76080000      -0.07490000
H       -0.58050000       1.76930000      -0.96010000
H       -0.57520000       1.79210000       0.81910000
H       -1.81190000      -0.73430000       0.85280000
H       -1.81790000      -0.75780000      -0.91940000
H       -0.71030000      -4.19940000       0.00920000
H        1.47200000      -2.83800000      -0.01680000
