23
Properties=species:S:1:pos:R:3 gdb_107059=T pbc="F F F"
C       -0.00510000       1.45880000      -0.45700000
C       -0.01450000       0.06500000       0.18500000
C       -1.40010000      -0.52030000       0.30060000
C       -2.44160000       0.07730000       1.23940000
C       -3.60440000      -0.94070000       1.21590000
C       -2.96260000      -2.31800000       0.90210000
C       -3.89980000      -3.28820000       0.18030000
C       -1.72450000      -1.93970000       0.10750000
O       -1.98670000      -0.98500000      -0.93620000
H        1.01750000       1.83250000      -0.56360000
H       -0.46090000       1.42450000      -1.45110000
H       -0.56280000       2.18350000       0.14490000
H        0.60140000      -0.61640000      -0.41180000
H        0.43610000       0.11040000       1.18510000
H       -2.00160000       0.15970000       2.24160000
H       -2.75900000       1.08110000       0.94030000
H       -4.17300000      -0.95200000       2.14940000
H       -4.29930000      -0.68150000       0.41290000
H       -2.61540000      -2.78210000       1.83680000
H       -4.19990000      -2.87560000      -0.78820000
H       -3.41650000      -4.25470000       0.00180000
H       -4.80600000      -3.47240000       0.76690000
H       -0.96720000      -2.68570000      -0.12850000
