17
Properties=species:S:1:pos:R:3 gdb_47829=T pbc="F F F"
O       -0.08390000       0.33110000       1.09750000
C       -0.10860000       1.23740000       0.31040000
O       -1.32240000       1.75490000      -0.06580000
C       -1.60920000       2.09260000      -1.41660000
O       -1.00030000       3.25300000      -1.88020000
C        0.29950000       3.06270000      -2.41330000
C        1.35610000       2.79310000      -1.36640000
C        1.28670000       3.42130000      -0.01590000
C        1.14390000       1.90370000      -0.15220000
H       -1.36320000       1.23790000      -2.06500000
H       -2.68490000       2.27330000      -1.42020000
H        0.28360000       2.24750000      -3.15400000
H        0.54070000       3.98980000      -2.94350000
H        2.34620000       2.68570000      -1.80310000
H        2.18850000       3.79530000       0.45380000
H        0.37810000       3.96200000       0.22210000
H        2.00340000       1.32130000       0.15710000
