23
Properties=species:S:1:pos:R:3 gdb_120645=T pbc="F F F"
C        0.08160000       1.31080000       0.28730000
O       -0.02190000      -0.09100000       0.30200000
C       -1.26000000      -0.55240000      -0.20390000
C       -1.24800000      -2.05760000      -0.18360000
C       -1.63570000      -2.82860000       1.05490000
C       -2.51470000      -2.89040000      -0.17220000
C       -3.89020000      -2.24840000      -0.14040000
C       -2.46320000      -4.16620000      -0.98520000
O       -3.33700000      -5.11920000      -0.39070000
H        1.06470000       1.57210000       0.68680000
H       -0.00700000       1.71960000      -0.73270000
H       -0.69220000       1.78720000       0.91130000
H       -2.08870000      -0.15110000       0.40130000
H       -1.40630000      -0.17940000      -1.23350000
H       -0.42180000      -2.46910000      -0.75880000
H       -1.05570000      -3.70430000       1.32520000
H       -1.99960000      -2.25830000       1.90360000
H       -3.93560000      -1.39840000       0.54440000
H       -4.19030000      -1.89620000      -1.13520000
H       -4.62800000      -2.98550000       0.18810000
H       -2.76620000      -3.95350000      -2.02410000
H       -1.42970000      -4.54540000      -1.01440000
H       -3.41180000      -5.86970000      -0.98700000
