17
Properties=species:S:1:pos:R:3 gdb_74157=T pbc="F F F"
N        0.09990000       1.34680000       0.08590000
C        0.00100000      -0.01450000      -0.00550000
C       -1.12430000      -0.77120000       0.03470000
C       -0.79410000      -2.19260000       0.00070000
O       -1.55870000      -3.13450000       0.00050000
C        0.74280000      -2.30550000      -0.05380000
C        1.23140000      -0.86650000      -0.06060000
C        2.47620000      -0.39470000      -0.73030000
N        2.42430000      -0.50270000       0.73200000
H        0.90300000       1.79310000      -0.32910000
H       -0.75180000       1.87660000      -0.01530000
H       -2.14120000      -0.40310000       0.07930000
H        1.11600000      -2.84580000       0.82030000
H        1.04090000      -2.86770000      -0.94360000
H        3.11350000      -1.12430000      -1.22250000
H        2.49250000       0.58860000      -1.19740000
H        2.29420000       0.41450000       1.15450000
