19
Properties=species:S:1:pos:R:3 gdb_65151=T pbc="F F F"
C        0.07070000       1.55390000      -0.41270000
C       -0.03720000       0.08580000      -0.06130000
C        1.13430000      -0.78700000      -0.22460000
O        0.74380000      -0.32310000       1.07370000
C       -1.43470000      -0.49440000      -0.11070000
C       -1.65280000      -1.94210000       0.42700000
C       -2.86640000      -1.40990000       1.19970000
O       -3.81660000      -1.92570000       1.71080000
C       -2.45400000       0.04820000       0.94900000
H        1.10210000       1.89980000      -0.31250000
H       -0.25940000       1.73040000      -1.44210000
H       -0.55800000       2.15880000       0.24890000
H        1.00160000      -1.85400000      -0.39650000
H        2.06630000      -0.37100000      -0.60460000
H       -1.83580000      -0.38150000      -1.12260000
H       -1.83130000      -2.75300000      -0.28220000
H       -0.85610000      -2.22740000       1.12300000
H       -1.94960000       0.46740000       1.82700000
H       -3.24090000       0.73340000       0.62640000
