17
Properties=species:S:1:pos:R:3 gdb_74065=T pbc="F F F"
C       -0.06900000       1.41220000       0.23690000
C       -0.00480000      -0.06460000       0.03640000
C       -0.11620000      -0.73060000      -1.12560000
C       -0.00290000      -2.18200000      -0.92470000
O       -0.04650000      -3.06700000      -1.74650000
C        0.17620000      -2.40170000       0.60770000
C        0.20220000      -0.99620000       1.21270000
C       -0.94170000      -3.29870000       1.10910000
O       -1.73150000      -2.99690000       1.96650000
H        0.85160000       1.77800000       0.70840000
H       -0.21590000       1.94940000      -0.70260000
H       -0.88810000       1.67020000       0.91950000
H       -0.26920000      -0.29600000      -2.10550000
H        1.11110000      -2.95980000       0.73910000
H        1.14760000      -0.77280000       1.72100000
H       -0.59280000      -0.87690000       1.95760000
H       -0.98750000      -4.27870000       0.59120000
