16
Properties=species:S:1:pos:R:3 gdb_2150=T pbc="F F F"
C       -0.35490000       1.53890000      -0.05730000
C        0.07290000       0.08150000      -0.05640000
O        1.12440000      -0.10250000      -1.05150000
C        2.08030000      -0.83370000      -0.43680000
N        1.96320000      -1.14280000       0.78540000
C        0.70540000      -0.51370000       1.24770000
C        1.00410000       0.46990000       2.38120000
H        0.46850000       2.19800000       0.22820000
H       -0.69500000       1.82850000      -1.05530000
H       -1.18260000       1.69450000       0.64130000
H       -0.76550000      -0.54490000      -0.38220000
H        2.91530000      -1.10350000      -1.07500000
H        0.05300000      -1.30060000       1.64170000
H        1.68180000       1.26400000       2.05420000
H        0.08790000       0.92980000       2.76430000
H        1.49000000      -0.06450000       3.20140000
