13
Properties=species:S:1:pos:R:3 gdb_20588=T pbc="F F F"
C        0.04970000       1.49920000       0.05790000
C       -0.06560000       0.01730000       0.07720000
C       -1.12210000      -0.85380000      -0.03370000
C       -2.54010000      -0.56900000      -0.21530000
O       -3.39660000      -1.42080000      -0.30190000
C       -0.50200000      -2.13710000       0.07190000
N        0.78750000      -2.05400000       0.22940000
O        1.06740000      -0.67180000       0.23270000
H        0.70310000       1.82210000      -0.75880000
H       -0.92930000       1.96220000      -0.07320000
H        0.48720000       1.86160000       0.99360000
H       -2.80020000       0.51080000      -0.27190000
H       -0.98060000      -3.10490000       0.03470000
