10
Properties=species:S:1:pos:R:3 gdb_133445=T pbc="F F F"
F       -0.01480000       0.09920000      -0.27630000
C       -0.03330000       1.38480000      -0.03000000
N       -1.16160000       1.95230000       0.09480000
O       -1.13940000       3.31640000       0.35490000
C        0.02940000       4.04120000       0.47630000
N        0.04260000       5.26690000       0.71110000
O        1.21270000       3.37540000       0.33200000
C        1.29470000       2.03730000       0.07520000
O        2.34350000       1.48990000      -0.04480000
H       -0.90030000       5.63960000       0.79630000
