22
Properties=species:S:1:pos:R:3 gdb_109735=T pbc="F F F"
C       -0.34450000       1.51790000       0.78110000
C       -0.13610000       0.29120000      -0.11440000
C       -1.33690000      -0.63450000      -0.11090000
C       -1.28480000      -2.08080000      -0.50190000
C       -0.01980000      -2.78500000      -0.94500000
C       -1.56120000      -1.70910000       0.95870000
C       -0.56050000      -1.96710000       2.03770000
N       -1.11500000      -2.32080000       3.24010000
O        0.65100000      -1.86590000       1.91170000
H        0.51560000       2.19270000       0.72950000
H       -1.23300000       2.08680000       0.48340000
H       -0.47290000       1.22120000       1.82710000
H        0.04050000       0.61860000      -1.14770000
H        0.75430000      -0.24620000       0.21330000
H       -2.26060000      -0.12500000      -0.38170000
H       -2.17540000      -2.44140000      -1.01240000
H        0.83700000      -2.50730000      -0.33220000
H       -0.14340000      -3.87110000      -0.87260000
H        0.19870000      -2.54660000      -1.99200000
H       -2.59250000      -1.83110000       1.27730000
H       -2.09010000      -2.54060000       3.33770000
H       -0.48520000      -2.59220000       3.97730000
