16
Properties=species:S:1:pos:R:3 gdb_48785=T pbc="F F F"
O       -0.79340000       0.92310000       0.46830000
C        0.22470000       0.91390000      -0.17890000
C        1.35880000       1.84340000       0.04770000
O        2.24130000       2.03590000      -1.06680000
C        2.77430000       1.36340000       0.05910000
C        3.57340000       2.21530000       1.04320000
C        2.58790000       3.24440000       1.60030000
N        2.04600000       4.18100000       0.60180000
C        1.24370000       3.00950000       1.00300000
H        0.40010000       0.19440000      -1.00800000
H        3.05010000       0.32380000      -0.11130000
H        3.94350000       1.57370000       1.85010000
H        4.43560000       2.68190000       0.55710000
H        2.70870000       3.58320000       2.62450000
H        1.68340000       5.00380000       1.07880000
H        0.31300000       3.12890000       1.54300000
