15
Properties=species:S:1:pos:R:3 gdb_28060=T pbc="F F F"
C       -0.03060000       1.47990000      -0.01780000
C       -0.04860000      -0.00510000       0.01040000
N       -1.06430000      -0.79830000      -0.15770000
C       -0.52980000      -2.06930000      -0.03360000
N       -1.37040000      -3.16950000      -0.16340000
C       -0.96420000      -4.46810000      -0.06210000
O        0.17720000      -4.81450000       0.15290000
C        0.80280000      -1.99130000       0.20720000
O        1.11520000      -0.65110000       0.23580000
H        0.63820000       1.84930000      -0.80190000
H       -1.03980000       1.84490000      -0.20850000
H        0.32340000       1.88620000       0.93520000
H       -2.34060000      -2.96030000      -0.34430000
H       -1.80400000      -5.17390000      -0.20000000
H        1.58990000      -2.70140000       0.36530000
