10
Properties=species:S:1:pos:R:3 gdb_133469=T pbc="F F F"
F       -0.33110000       0.10220000      -0.23710000
C       -0.01680000       1.37250000       0.02220000
F        1.31000000       1.46370000       0.15140000
F       -0.39270000       2.11190000      -1.02270000
C       -0.67250000       1.84620000       1.28540000
C       -0.15430000       2.31580000       2.44690000
N       -1.23040000       2.59920000       3.25670000
N       -2.31080000       2.34010000       2.67800000
O       -1.99580000       1.83560000       1.36210000
H        0.86450000       2.46790000       2.75580000
