21
Properties=species:S:1:pos:R:3 gdb_72495=T pbc="F F F"
C       -0.06620000       1.49860000       0.03760000
C        0.05780000      -0.01280000      -0.02520000
C        0.63420000      -0.54810000      -1.35520000
O       -0.04590000      -1.78530000      -1.56190000
C       -1.02060000      -1.90050000      -0.52430000
C       -0.47880000      -2.74920000       0.62960000
C        0.85210000      -2.14880000       1.11640000
C        0.77920000      -0.61100000       1.19930000
O       -1.26370000      -0.58590000      -0.07630000
H        0.92110000       1.96750000      -0.02300000
H       -0.67910000       1.86500000      -0.79030000
H       -0.53360000       1.80890000       0.97650000
H        0.41650000       0.13590000      -2.18520000
H        1.71610000      -0.71840000      -1.31220000
H       -1.94600000      -2.29980000      -0.95080000
H       -1.23210000      -2.74940000       1.42620000
H       -0.34140000      -3.78480000       0.30230000
H        1.13250000      -2.56670000       2.08840000
H        1.64170000      -2.43880000       0.41480000
H        1.78490000      -0.18470000       1.29300000
H        0.21470000      -0.30580000       2.08830000
