23
Properties=species:S:1:pos:R:3 gdb_65786=T pbc="F F F"
C       -0.10790000       1.78990000      -0.19640000
C        0.11350000       0.27650000      -0.10600000
C        1.11290000      -0.22890000      -1.20060000
C        1.96530000      -1.24340000      -0.48040000
C        1.79780000      -1.18910000       0.83970000
C        0.80330000      -0.12850000       1.24020000
C       -1.17650000      -0.53740000      -0.23620000
C       -2.50430000      -0.11920000       0.34100000
C       -2.31410000      -0.18100000      -1.15810000
H        0.84730000       2.31510000      -0.09670000
H       -0.54230000       2.08400000      -1.15720000
H       -0.76520000       2.15620000       0.59880000
H        0.58340000      -0.64520000      -2.06570000
H        1.73300000       0.59250000      -1.58740000
H        2.64940000      -1.90670000      -0.99900000
H        2.32430000      -1.80120000       1.56430000
H        1.31580000       0.72780000       1.70180000
H        0.07060000      -0.47890000       1.97680000
H       -0.97620000      -1.60470000      -0.16680000
H       -3.11890000      -0.87520000       0.81790000
H       -2.59330000       0.86390000       0.79010000
H       -2.27820000       0.76150000      -1.69330000
H       -2.79820000      -0.97940000      -1.71020000
