15
Properties=species:S:1:pos:R:3 gdb_43834=T pbc="F F F"
O        0.08630000      -0.02580000       0.12090000
C        0.00520000       1.16680000      -0.00580000
C       -1.27710000       1.99020000      -0.20220000
C       -0.81230000       3.22230000      -0.97460000
C       -1.39840000       3.67100000      -2.24330000
O       -1.63180000       4.38280000      -1.02300000
C        0.65400000       3.38760000      -0.67800000
O        0.93500000       3.29500000       0.71640000
C        1.16810000       2.12970000      -0.09470000
H       -2.04230000       1.40190000      -0.70990000
H       -1.66560000       2.28880000       0.77730000
H       -0.78440000       4.19160000      -2.97760000
H       -2.25700000       3.13830000      -2.64910000
H        1.27470000       4.07100000      -1.25040000
H        2.19200000       1.77990000      -0.17620000
