17
Properties=species:S:1:pos:R:3 gdb_18135=T pbc="F F F"
C       -0.08100000       1.53400000      -0.11860000
C        0.06980000       0.03550000       0.04030000
C        1.32120000      -0.76230000      -0.20260000
C        2.57100000      -0.02500000       0.29510000
C        1.96550000      -0.02460000       1.74660000
C        1.85220000       1.23410000       2.47520000
N        1.77190000       2.23180000       3.05470000
C        0.69210000      -0.69830000       1.19920000
H        0.79370000       2.09280000       0.21880000
H       -0.25290000       1.78680000      -1.17060000
H       -0.93690000       1.89890000       0.45810000
H       -0.80610000      -0.50980000      -0.30900000
H        1.34530000      -1.60020000      -0.88840000
H        3.48220000      -0.62260000       0.24700000
H        2.76980000       0.95430000      -0.14620000
H        2.52180000      -0.72440000       2.37560000
H        0.15360000      -1.46120000       1.74810000
