23
Properties=species:S:1:pos:R:3 gdb_74399=T pbc="F F F"
C        0.01060000       1.46560000       0.04900000
C        0.00620000      -0.02330000       0.00110000
C       -0.00550000      -0.87520000      -1.02840000
C       -0.00280000      -2.26690000      -0.36950000
C       -0.01420000      -3.49840000      -1.24580000
C        1.07330000      -2.02210000       0.74690000
C        0.01550000      -0.96840000       1.23220000
C        0.02990000      -0.37860000       2.62460000
C       -1.05650000      -2.01680000       0.76690000
H        0.89560000       1.85290000       0.57070000
H        0.00090000       1.89220000      -0.95820000
H       -0.86100000       1.85750000       0.58970000
H       -0.01500000      -0.67420000      -2.09200000
H        0.86290000      -3.52490000      -1.90270000
H       -0.00870000      -4.41440000      -0.64580000
H       -0.90590000      -3.52260000      -1.88280000
H        1.18420000      -2.86790000       1.43620000
H        2.05110000      -1.64800000       0.43110000
H        0.91700000       0.24440000       2.78710000
H       -0.85190000       0.24700000       2.80440000
H        0.03620000      -1.16650000       3.38490000
H       -2.03820000      -1.63780000       0.46950000
H       -1.15870000      -2.86200000       1.45830000
