19
Properties=species:S:1:pos:R:3 gdb_107151=T pbc="F F F"
C        0.25230000       1.50280000       0.19400000
C       -0.08220000       0.02120000      -0.02920000
C        0.45050000      -0.49590000      -1.32860000
C       -0.01880000      -0.16270000      -2.76550000
C        0.42070000      -1.59820000      -3.14600000
C       -0.22710000      -2.54070000      -4.05700000
O        1.07010000      -1.99080000      -4.33470000
C        0.92670000      -1.83690000      -1.73900000
O        1.85220000      -0.77670000      -1.43940000
H        1.33500000       1.65850000       0.19240000
H       -0.17940000       2.13050000      -0.59250000
H       -0.14170000       1.85000000       1.15340000
H        0.33790000      -0.58400000       0.78160000
H       -1.16960000      -0.12430000      -0.01010000
H       -1.09490000      -0.00050000      -2.86930000
H        0.53470000       0.64610000      -3.24620000
H       -0.24130000      -3.60540000      -3.82560000
H       -1.03190000      -2.19490000      -4.70460000
H        1.03410000      -2.76370000      -1.18640000
