17
Properties=species:S:1:pos:R:3 gdb_90909=T pbc="F F F"
C       -0.33010000       1.51990000      -0.07480000
C        0.03170000       0.05420000       0.00260000
O        1.11240000      -0.33430000      -0.96940000
C        2.06810000      -0.16860000       0.14430000
C        2.89620000      -0.95570000       1.27330000
O        2.00380000      -0.17330000       2.19800000
C        0.99810000      -0.49510000       1.10030000
C        0.97540000      -2.02490000       1.17750000
C        2.26550000      -2.33420000       1.29940000
H        0.52180000       2.16600000       0.14860000
H       -0.69150000       1.75770000      -1.07930000
H       -1.12950000       1.74270000       0.63940000
H       -0.84180000      -0.58570000      -0.16020000
H        2.42150000       0.86430000       0.13720000
H        3.95540000      -0.79690000       1.47410000
H        0.09130000      -2.64420000       1.13380000
H        2.77310000      -3.28240000       1.39090000
