18
Properties=species:S:1:pos:R:3 gdb_97902=T pbc="F F F"
C       -0.04640000       1.58110000      -0.03730000
C        0.02290000       0.04320000      -0.00720000
C        0.70700000      -0.47430000       1.17310000
C        1.27750000      -0.87570000       2.15460000
C        1.95430000      -1.38710000       3.33740000
C        2.05830000      -2.93470000       3.33100000
O        2.75350000      -3.44770000       2.21860000
C        2.66180000      -3.39660000       4.60090000
N        3.16200000      -3.73720000       5.58530000
H        0.95670000       2.01580000      -0.03320000
H       -0.56570000       1.92050000      -0.93820000
H       -0.58330000       1.96340000       0.83500000
H       -0.99270000      -0.37050000      -0.04840000
H        0.53220000      -0.31950000      -0.90910000
H        2.96870000      -0.97320000       3.41790000
H        1.42900000      -1.08160000       4.25100000
H        1.04900000      -3.35240000       3.26180000
H        3.65340000      -3.10100000       2.23250000
