20
Properties=species:S:1:pos:R:3 gdb_81409=T pbc="F F F"
C       -0.08060000       1.57120000       0.00680000
C        0.03140000       0.05290000       0.01250000
C        0.80120000      -0.63480000      -1.17290000
C        2.11790000      -0.32040000      -0.39310000
C        1.19300000      -0.61220000       0.82230000
N        0.88960000      -2.03060000       0.60920000
C        0.59750000      -2.12650000      -0.83280000
C        1.00940000      -3.07090000       1.45950000
O        0.81700000      -4.23430000       1.16180000
H        0.86470000       2.07620000      -0.20730000
H       -0.80420000       1.89360000      -0.74960000
H       -0.43770000       1.93410000       0.97660000
H       -0.94860000      -0.38530000       0.23040000
H        0.65160000      -0.34250000      -2.21170000
H        2.97150000      -0.98730000      -0.53590000
H        2.43230000       0.71900000      -0.47040000
H        1.43710000      -0.36620000       1.85520000
H       -0.42090000      -2.48320000      -1.01540000
H        1.29840000      -2.79820000      -1.33800000
H        1.29710000      -2.74260000       2.47950000
