20
Properties=species:S:1:pos:R:3 gdb_120001=T pbc="F F F"
C       -0.05850000       1.58970000      -0.18080000
C        0.03250000       0.07850000      -0.02980000
N        1.10330000      -0.56890000      -0.80310000
C        1.76160000      -1.11180000       0.27030000
O        2.76480000      -1.77050000       0.37080000
C        0.71870000      -0.52050000       1.25210000
C        1.26120000       0.39840000       2.34270000
C        1.98010000      -0.39720000       3.44020000
O        2.47780000       0.43760000       4.47420000
H        0.90870000       2.06970000      -0.00990000
H       -0.39430000       1.85520000      -1.18900000
H       -0.78320000       2.00350000       0.52780000
H       -0.94860000      -0.37290000      -0.22180000
H        1.27750000      -0.63210000      -1.79570000
H        0.10920000      -1.31430000       1.69740000
H        1.96520000       1.12270000       1.91300000
H        0.44900000       0.97670000       2.79900000
H        1.27160000      -1.07960000       3.92390000
H        2.77160000      -1.01340000       2.99250000
H        3.23300000       0.91980000       4.12350000
