15
Properties=species:S:1:pos:R:3 gdb_46855=T pbc="F F F"
N       -0.19770000       1.30230000      -0.17070000
C       -0.03190000       0.07210000       0.12820000
N        1.13470000      -0.53810000       0.53550000
C        1.33320000      -1.95880000       0.74190000
C        0.08250000      -2.62340000       1.27190000
O       -0.65160000      -1.90320000       2.24080000
C       -1.23660000      -2.05150000       0.93550000
C       -1.25940000      -0.83330000       0.06110000
O       -2.18670000      -0.61130000      -0.67510000
H        0.67660000       1.82850000      -0.09350000
H        1.95320000       0.04820000       0.57870000
H        1.63460000      -2.48510000      -0.17870000
H        2.14600000      -2.09090000       1.46520000
H        0.15560000      -3.69810000       1.43520000
H       -2.12360000      -2.67740000       0.87960000
