18
Properties=species:S:1:pos:R:3 gdb_117473=T pbc="F F F"
C        1.15790000       0.17260000       0.37490000
O        1.08810000       0.14570000      -1.03920000
C       -0.13690000      -0.33190000      -1.53460000
C       -0.21830000      -1.85370000      -1.66630000
O       -1.28670000      -2.41530000      -1.75940000
C        1.09580000      -2.60960000      -1.75810000
N        0.83480000      -4.01090000      -1.95910000
C        1.78860000      -4.95610000      -1.77130000
O        2.94740000      -4.72020000      -1.49770000
H        0.38690000       0.83210000       0.79870000
H        1.04110000      -0.82730000       0.81830000
H        2.14430000       0.55950000       0.63780000
H       -0.99850000       0.00960000      -0.94390000
H       -0.25460000       0.07470000      -2.54820000
H        1.69380000      -2.17200000      -2.57070000
H        1.69280000      -2.44780000      -0.85270000
H       -0.13500000      -4.26480000      -2.08680000
H        1.38960000      -5.98100000      -1.90310000
