20
Properties=species:S:1:pos:R:3 gdb_78090=T pbc="F F F"
C       -0.10350000       1.56200000      -0.01400000
C        0.04630000       0.06380000       0.12270000
N        1.24410000      -0.72040000      -0.28230000
C        2.45790000       0.10380000       0.11350000
C        2.03970000       0.08590000       1.61460000
C        0.78260000      -0.66780000       1.17740000
C        0.23660000      -1.86580000       1.89740000
C        3.70140000      -0.57500000      -0.19560000
C        4.74330000      -1.12640000      -0.43050000
H        0.68660000       2.13010000       0.48200000
H       -0.12010000       1.85460000      -1.06970000
H       -1.05500000       1.87380000       0.42930000
H       -0.83670000      -0.47090000      -0.22520000
H        2.46210000       1.09330000      -0.35570000
H        2.71110000      -0.53200000       2.21210000
H        1.90540000       1.05000000       2.11390000
H       -0.26080000      -1.56670000       2.82810000
H       -0.49450000      -2.39230000       1.27720000
H        1.03500000      -2.57050000       2.15350000
H        5.65950000      -1.61610000      -0.64990000
