17
Properties=species:S:1:pos:R:3 gdb_67019=T pbc="F F F"
C        0.03560000       1.62500000      -0.01600000
C       -0.04880000       0.12560000      -0.02750000
C        0.41260000      -0.75360000      -1.22940000
C       -0.59940000      -1.79350000      -0.74280000
C       -0.49730000      -1.83800000       0.80740000
C        0.39980000      -0.71040000       1.19790000
O        1.01480000      -0.42740000       2.18980000
C       -1.36240000      -0.79710000       0.04190000
O       -2.69790000      -0.53210000       0.10910000
H        1.08010000       1.94830000      -0.08010000
H       -0.50710000       2.06350000      -0.85950000
H       -0.37550000       2.03820000       0.91080000
H        0.11660000      -0.32270000      -2.19000000
H        1.47170000      -1.03510000      -1.25300000
H       -0.97630000      -2.66870000      -1.25690000
H       -0.83220000      -2.69700000       1.37250000
H       -2.91460000      -0.22020000       0.99570000
