18
Properties=species:S:1:pos:R:3 gdb_44861=T pbc="F F F"
O        0.01220000       0.00980000       0.14910000
C        0.01080000       1.20930000       0.00620000
N       -1.10350000       2.03750000      -0.07150000
C       -0.64470000       3.43910000       0.01590000
C        0.59790000       3.31970000      -0.89110000
C        1.21150000       2.18450000      -0.04870000
C        1.20290000       2.77290000       1.38180000
C        1.30810000       4.26460000       1.59590000
C       -0.05000000       3.63010000       1.42490000
H       -1.96340000       1.72870000       0.35820000
H       -1.41800000       4.14160000      -0.29550000
H        0.32470000       2.99970000      -1.89770000
H        1.20360000       4.22220000      -0.95600000
H        2.13960000       1.72480000      -0.38230000
H        1.45970000       2.10640000       2.19650000
H        1.55950000       4.56930000       2.60690000
H        1.72490000       4.91810000       0.83890000
H       -0.73120000       3.59570000       2.26810000
