21
Properties=species:S:1:pos:R:3 gdb_120509=T pbc="F F F"
O       -0.14640000       1.50810000       0.08470000
C        0.01880000       0.09880000       0.03290000
C       -1.36790000      -0.52890000      -0.04010000
C       -1.35690000      -2.06500000      -0.06550000
C       -2.76680000      -2.69960000       0.05850000
C       -2.75950000      -3.96340000      -0.83990000
O       -3.98730000      -4.21120000      -1.51290000
C       -1.58350000      -3.71260000      -1.75610000
C       -0.83600000      -2.69010000      -1.34530000
H        0.72540000       1.91240000       0.11670000
H        0.61930000      -0.19560000      -0.84270000
H        0.54570000      -0.27430000       0.92700000
H       -1.93990000      -0.18320000       0.82940000
H       -1.88450000      -0.14560000      -0.92860000
H       -0.73090000      -2.40890000       0.77320000
H       -3.05370000      -2.91060000       1.09150000
H       -3.51340000      -2.00610000      -0.34870000
H       -2.59910000      -4.87210000      -0.24520000
H       -4.13930000      -3.47040000      -2.11070000
H       -1.39470000      -4.33860000      -2.62150000
H        0.07150000      -2.34820000      -1.83240000
