23
Properties=species:S:1:pos:R:3 gdb_107675=T pbc="F F F"
O        0.02480000       1.32650000       0.49590000
C        0.00020000       0.01940000      -0.06830000
C       -1.41350000      -0.50510000      -0.00280000
C       -1.83560000      -1.15870000       1.28850000
C       -1.58500000      -2.01400000       0.06620000
C       -2.75020000      -2.70690000      -0.64380000
C       -3.49340000      -1.80180000      -1.64020000
C       -3.74880000      -0.40880000      -1.05590000
C       -2.42250000       0.31800000      -0.79510000
H        0.89590000       1.70300000       0.34040000
H        0.33690000       0.04220000      -1.11850000
H        0.67460000      -0.65900000       0.47920000
H       -1.11780000      -1.18840000       2.10170000
H       -2.86450000      -1.04070000       1.61430000
H       -0.66310000      -2.58910000       0.08750000
H       -2.37760000      -3.59340000      -1.16800000
H       -3.46180000      -3.07770000       0.10520000
H       -2.89430000      -1.69290000      -2.55460000
H       -4.43400000      -2.27810000      -1.93820000
H       -4.35760000       0.18930000      -1.74270000
H       -4.33110000      -0.49580000      -0.12910000
H       -2.59140000       1.27360000      -0.28800000
H       -1.97110000       0.56400000      -1.76750000
