14
Properties=species:S:1:pos:R:3 gdb_131192=T pbc="F F F"
O        0.08540000       1.37300000       0.02130000
C        0.07130000       0.03050000      -0.07290000
C        0.03560000      -0.75600000      -1.20780000
C       -0.00240000      -0.88020000      -2.65180000
C       -0.02220000      -2.18850000      -2.96930000
C        0.00230000      -3.04930000      -1.71860000
N        0.03780000      -2.01880000      -0.68920000
N        0.07180000      -2.04000000       0.63790000
N        0.09220000      -0.77430000       1.01810000
H        0.11110000       1.58130000       0.96450000
H       -0.01270000      -0.04790000      -3.34000000
H       -0.05140000      -2.61420000      -3.96210000
H       -0.88760000      -3.68010000      -1.61300000
H        0.88520000      -3.69560000      -1.65850000
