18
Properties=species:S:1:pos:R:3 gdb_102036=T pbc="F F F"
C        0.05400000       1.52990000      -0.00380000
C       -0.01060000       0.00570000       0.08340000
N        0.70550000      -0.53830000       1.25090000
C       -0.03680000      -0.84940000       2.39370000
O        0.36710000      -1.25350000       3.44960000
C        2.09740000      -0.65470000       1.10670000
O        2.66700000      -0.32070000       0.09320000
O        2.69020000      -1.16800000       2.18280000
C        4.11440000      -1.30140000       2.07650000
H        1.09030000       1.86150000      -0.09610000
H       -0.49740000       1.87720000      -0.88310000
H       -0.38830000       1.99600000       0.88230000
H       -1.04790000      -0.33230000       0.15680000
H        0.42520000      -0.44400000      -0.80960000
H       -1.11140000      -0.66750000       2.19570000
H        4.37900000      -1.96580000       1.25060000
H        4.58140000      -0.32740000       1.91200000
H        4.43380000      -1.72480000       3.02810000
