15
Properties=species:S:1:pos:R:3 gdb_24986=T pbc="F F F"
O        0.03860000       0.01870000       0.01020000
C       -0.02750000       1.21400000       0.00330000
N       -1.14450000       2.03960000       0.00220000
C       -0.72680000       3.36580000       0.08750000
C        0.60390000       3.34530000       0.07350000
C        1.20370000       4.69650000      -0.13230000
N        0.00000000       5.57410000      -0.02000000
C       -1.24700000       4.75570000      -0.10800000
O        1.08550000       2.06320000       0.01010000
H       -2.06630000       1.65950000       0.12810000
H        1.95790000       4.98790000       0.60720000
H        1.67000000       4.79220000      -1.12350000
H        0.01950000       6.01040000       0.89280000
H       -1.72470000       4.87490000      -1.09170000
H       -1.97150000       5.09270000       0.64230000
