13
Properties=species:S:1:pos:R:3 gdb_130986=T pbc="F F F"
O        0.33940000       0.90160000       1.19550000
C        0.45260000       1.67940000       0.28980000
C        1.31980000       1.39850000      -0.94090000
N        1.47890000       2.56220000      -1.79030000
C        2.35140000       3.54470000      -1.45770000
N        2.95560000       3.67730000      -0.30410000
O        3.68980000       4.82790000      -0.46810000
N        3.48620000       5.32080000      -1.72950000
N        2.68400000       4.56340000      -2.33830000
H       -0.08400000       2.65370000       0.26100000
H        2.28320000       0.99880000      -0.60010000
H        0.82270000       0.61350000      -1.51900000
H        1.26660000       2.49040000      -2.77120000
