19
Properties=species:S:1:pos:R:3 gdb_107259=T pbc="F F F"
O        0.06610000       1.41910000       0.03150000
C       -0.00220000       0.00630000      -0.07600000
C       -1.40800000      -0.52290000      -0.02400000
C       -1.91200000      -1.70440000      -0.80950000
C       -2.54340000      -0.35140000      -1.02010000
C       -3.49890000       0.09660000       0.12050000
C       -3.61630000      -0.91120000       1.26440000
C       -2.37650000      -0.09260000       1.11920000
O       -1.81530000       0.72630000       2.09760000
H       -0.36310000       1.64560000       0.86590000
H        0.44610000      -0.25430000      -1.04130000
H        0.60740000      -0.47850000       0.70490000
H       -1.24810000      -2.01280000      -1.61300000
H       -2.43710000      -2.53570000      -0.35230000
H       -2.50540000       0.15730000      -1.97460000
H       -4.21640000       0.89900000       0.00710000
H       -4.27940000      -0.55590000       2.05170000
H       -3.66930000      -1.98700000       1.12520000
H       -2.50480000       1.02040000       2.70150000
