15
Properties=species:S:1:pos:R:3 gdb_82629=T pbc="F F F"
O        0.08000000       1.38490000      -0.11120000
C        0.04060000      -0.02190000      -0.05410000
C        0.42300000      -0.62670000       1.31750000
O       -0.58660000      -0.08050000       2.17440000
C       -1.72520000      -0.56690000       1.46690000
C       -1.26370000      -1.84700000       0.79460000
O        0.09870000      -1.99830000       1.17810000
C       -1.38020000      -0.58800000      -0.02550000
O       -2.27460000      -0.43870000      -1.06260000
H       -0.25360000       1.69570000       0.74140000
H        0.64610000      -0.41670000      -0.87180000
H        1.41680000      -0.47910000       1.73100000
H       -2.68600000      -0.38460000       1.92430000
H       -1.82770000      -2.76060000       0.67840000
H       -2.33230000       0.50650000      -1.25210000
