18
Properties=species:S:1:pos:R:3 gdb_112078=T pbc="F F F"
O        0.19170000       1.40640000       0.12320000
C        0.10010000       0.00090000       0.10190000
C       -1.35240000      -0.50650000       0.00300000
C       -2.24920000      -0.00140000       1.10480000
C       -3.26650000       0.71180000       0.63460000
C       -3.23910000       0.79630000      -0.86540000
N       -2.04010000       0.01500000      -1.19470000
C       -1.82220000      -0.43010000      -2.46000000
O       -2.47900000      -0.10270000      -3.42720000
H       -0.22140000       1.73050000      -0.68510000
H        0.68790000      -0.43420000      -0.72230000
H        0.53900000      -0.35840000       1.03930000
H       -1.31840000      -1.60740000      -0.01470000
H       -2.03460000      -0.20600000       2.14590000
H       -4.03910000       1.18950000       1.22330000
H       -4.12380000       0.35930000      -1.34640000
H       -3.16320000       1.82790000      -1.23480000
H       -0.96370000      -1.12890000      -2.52080000
