23
Properties=species:S:1:pos:R:3 gdb_104866=T pbc="F F F"
C       -0.65910000       1.76770000       0.37170000
C       -0.38000000       0.26970000       0.23380000
C       -1.64590000      -0.60440000       0.12330000
C       -1.29630000      -2.10800000       0.00480000
C       -0.55830000      -2.69500000       1.21220000
O       -2.45190000      -0.39840000       1.30510000
C       -3.78470000      -0.04040000       0.95650000
C       -3.76920000       0.11750000      -0.53810000
C       -2.56470000      -0.18730000      -1.00350000
H        0.27440000       2.32560000       0.49290000
H       -1.17810000       2.16720000      -0.50500000
H       -1.28460000       1.95850000       1.24800000
H        0.24530000       0.07850000      -0.64800000
H        0.19480000      -0.06920000       1.10180000
H       -2.23800000      -2.64990000      -0.14030000
H       -0.70820000      -2.25970000      -0.90980000
H        0.45590000      -2.29720000       1.31170000
H       -1.10280000      -2.47310000       2.13390000
H       -0.47440000      -3.78210000       1.11730000
H       -4.49210000      -0.82070000       1.28290000
H       -4.06540000       0.88660000       1.47940000
H       -4.63470000       0.42360000      -1.11240000
H       -2.24660000      -0.18060000      -2.03880000
