19
Properties=species:S:1:pos:R:3 gdb_102902=T pbc="F F F"
O        0.02980000       1.55730000      -0.12810000
C        0.03320000       0.14720000       0.01700000
C       -1.43330000      -0.31370000       0.08800000
C       -2.18890000       0.01520000      -1.21810000
C       -3.70000000      -0.26620000      -1.12150000
C       -4.40860000       0.04540000      -2.35640000
C       -4.96920000       0.30830000      -3.38670000
C       -1.49360000      -1.73630000       0.41520000
C       -1.52580000      -2.91230000       0.66410000
H        0.93620000       1.85180000      -0.25350000
H        0.52740000      -0.34950000      -0.83190000
H        0.55240000      -0.16270000       0.93520000
H       -1.89830000       0.25490000       0.90620000
H       -2.02140000       1.06950000      -1.44940000
H       -1.76300000      -0.57260000      -2.03850000
H       -3.85800000      -1.32000000      -0.86120000
H       -4.12840000       0.32000000      -0.29740000
H       -5.47600000       0.53730000      -4.29100000
H       -1.56240000      -3.94850000       0.89400000
