19
Properties=species:S:1:pos:R:3 gdb_105785=T pbc="F F F"
C       -0.15900000       1.66980000      -0.19810000
O       -0.16760000       0.25040000      -0.08760000
C        0.54460000      -0.46480000      -1.07240000
C        0.28750000      -1.96220000      -0.83950000
C       -0.16510000      -2.47530000      -2.21780000
C       -0.75270000      -1.21040000      -2.84590000
O        0.09920000      -0.15610000      -2.38460000
C        2.03050000      -0.06970000      -1.08250000
O        2.91650000      -0.74260000      -0.62570000
H        0.78760000       2.10640000       0.14650000
H       -0.35510000       1.98950000      -1.22680000
H       -0.96050000       2.03150000       0.44960000
H        1.18370000      -2.45380000      -0.46020000
H       -0.50620000      -2.05270000      -0.09500000
H        0.69150000      -2.82060000      -2.80500000
H       -0.88620000      -3.29330000      -2.15420000
H       -0.73460000      -1.19540000      -3.93820000
H       -1.78440000      -1.03780000      -2.50820000
H        2.23320000       0.89950000      -1.58590000
