16
Properties=species:S:1:pos:R:3 gdb_77888=T pbc="F F F"
C       -0.11660000       1.26950000      -0.40200000
N       -0.05250000      -0.03690000       0.22800000
C       -1.10190000      -1.05750000       0.21840000
C       -1.02520000      -1.89520000      -1.02300000
O       -0.73020000      -1.29460000      -2.24460000
C       -0.00070000      -2.13510000       0.07090000
O        0.16380000      -3.39020000       0.59500000
C        0.98260000      -0.95750000       0.06670000
O        2.16940000      -0.81960000      -0.05120000
H        0.90510000       1.64940000      -0.47940000
H       -0.55540000       1.20960000      -1.40430000
H       -0.70090000       1.96340000       0.20970000
H       -1.94570000      -1.00670000       0.89440000
H       -1.76220000      -2.70180000      -1.06260000
H       -0.13430000      -1.87220000      -2.73420000
H        0.56360000      -3.31070000       1.46880000
