21
Properties=species:S:1:pos:R:3 gdb_113173=T pbc="F F F"
C        0.13400000       1.55610000       0.02090000
C       -0.25590000       0.08330000      -0.07840000
N        0.41130000      -0.53780000      -1.22120000
C        1.70410000      -1.17310000      -1.01040000
C        0.49320000      -2.00220000      -1.33000000
C       -0.08230000      -2.93760000      -0.28640000
C        0.35820000      -2.53280000      -2.75270000
N        0.36510000      -1.56790000      -3.70930000
O        0.28580000      -3.72630000      -2.98550000
H        1.21040000       1.66490000       0.18920000
H       -0.11830000       2.08550000      -0.90230000
H       -0.38920000       2.03720000       0.85270000
H       -0.02320000      -0.42500000       0.86980000
H       -1.33700000      -0.00810000      -0.23470000
H        2.46220000      -0.98550000      -1.76610000
H        2.07870000      -1.23970000       0.01080000
H        0.23460000      -2.67570000       0.72460000
H       -1.17700000      -2.93970000      -0.31890000
H        0.25220000      -3.95170000      -0.51170000
H        0.25540000      -0.60920000      -3.41620000
H        0.20840000      -1.84110000      -4.66450000
