12
Properties=species:S:1:pos:R:3 gdb_5058=T pbc="F F F"
O       -0.00730000       0.05490000      -0.64290000
C       -0.01710000       1.19470000      -0.21380000
C       -1.29530000       1.85850000       0.15830000
N       -1.59600000       3.10860000       0.21840000
C       -0.73780000       4.14530000      -0.01970000
C        0.62760000       4.16400000      -0.03770000
N        1.51980000       3.15120000       0.17720000
C        1.25190000       1.89330000       0.12460000
H       -2.08620000       1.14410000       0.39760000
H       -1.23820000       5.10440000      -0.13280000
H        1.09850000       5.13630000      -0.16370000
H        2.06810000       1.20080000       0.34250000
