21
Properties=species:S:1:pos:R:3 gdb_39236=T pbc="F F F"
C        0.01420000       1.48490000       0.01360000
C        1.31030000       0.75300000       0.05270000
C        2.19900000       0.71820000       1.28060000
C        2.89040000      -0.64600000       1.42600000
C        1.97490000      -1.83670000       1.67140000
N        1.15140000      -1.86500000       2.88920000
C        0.48440000      -1.85220000       1.57350000
C       -0.35980000      -0.62260000       1.27230000
N        0.03810000       0.02110000       0.02020000
H       -0.29990000       1.98890000       0.92730000
H       -0.33480000       1.95320000      -0.90300000
H        1.86330000       0.66510000      -0.88330000
H        2.96370000       1.49860000       1.18680000
H        1.63520000       0.94900000       2.18810000
H        3.45520000      -0.84950000       0.50640000
H        3.62820000      -0.60460000       2.23720000
H        2.44620000      -2.78140000       1.39880000
H        1.14280000      -2.79570000       3.29630000
H        0.05980000      -2.79150000       1.22390000
H       -1.41140000      -0.91580000       1.17070000
H       -0.30420000       0.04840000       2.14090000
