19
Properties=species:S:1:pos:R:3 gdb_72687=T pbc="F F F"
C       -0.24370000       1.49570000       0.26220000
C       -0.02730000       0.01600000       0.05670000
C       -1.27000000      -0.91950000       0.01780000
C       -0.63660000      -1.83200000       1.10940000
C        0.64320000      -0.96830000       1.10620000
O        1.62790000      -1.37420000       0.14090000
C        1.11930000      -0.45970000      -0.85870000
C        1.23340000      -0.51100000       2.40310000
O        0.57880000      -0.29490000       3.39450000
H        0.70160000       2.02950000       0.40610000
H       -0.74640000       1.93290000      -0.60930000
H       -0.87400000       1.68340000       1.13730000
H       -2.19070000      -0.42730000       0.33960000
H       -1.45290000      -1.39060000      -0.95160000
H       -1.14930000      -1.77670000       2.07190000
H       -0.46030000      -2.87550000       0.84260000
H        0.82520000      -0.97430000      -1.78180000
H        1.85970000       0.31440000      -1.09930000
H        2.33430000      -0.35260000       2.37190000
