18
Properties=species:S:1:pos:R:3 gdb_97624=T pbc="F F F"
C       -0.04740000       1.56880000      -0.02310000
C        0.02500000       0.03100000       0.00880000
C        0.71670000      -0.48220000       1.18640000
C        1.29400000      -0.86950000       2.16890000
C        1.97540000      -1.40470000       3.34430000
C        1.97530000      -2.96750000       3.35290000
O        2.57340000      -3.48720000       4.51150000
C        3.36770000      -0.93560000       3.43800000
N        4.47920000      -0.63340000       3.53190000
H        0.95490000       2.00490000      -0.02470000
H       -0.57170000       1.90380000      -0.92260000
H       -0.58140000       1.95140000       0.85070000
H       -0.98880000      -0.38770000      -0.02360000
H        0.53180000      -0.33390000      -0.89340000
H        1.46500000      -1.08240000       4.26140000
H        0.93400000      -3.29810000       3.35060000
H        2.45190000      -3.32290000       2.42970000
H        3.51940000      -3.30380000       4.47450000
