21
Properties=species:S:1:pos:R:3 gdb_32835=T pbc="F F F"
C        0.17960000       1.60840000       0.09100000
C        0.09100000       0.08120000       0.06260000
C        0.55860000      -0.51530000      -1.27950000
C        0.50150000      -2.00280000      -1.32560000
C       -0.23710000      -2.89410000      -2.04030000
C        0.15980000      -4.21210000      -1.61810000
C       -0.36340000      -5.52410000      -2.11370000
C        1.11420000      -4.00780000      -0.67320000
O        1.33650000      -2.67630000      -0.48060000
H        1.20880000       1.94920000      -0.06830000
H       -0.44130000       2.05750000      -0.69250000
H       -0.15780000       2.00780000       1.05230000
H        0.69890000      -0.34480000       0.86850000
H       -0.94060000      -0.23890000       0.25250000
H       -0.06200000      -0.12670000      -2.09450000
H        1.58530000      -0.17920000      -1.48000000
H       -0.97920000      -2.64940000      -2.78570000
H       -0.19850000      -5.64230000      -3.19090000
H        0.12680000      -6.36130000      -1.60880000
H       -1.44210000      -5.61810000      -1.94280000
H        1.70860000      -4.67510000      -0.07020000
