21
Properties=species:S:1:pos:R:3 gdb_120102=T pbc="F F F"
O        0.10830000       1.43820000      -0.63290000
C       -0.00790000       0.02500000      -0.61430000
C       -1.28670000      -0.33180000       0.13840000
C       -1.47570000      -1.84910000       0.19670000
C       -1.92500000      -2.74990000       1.32290000
C       -3.20680000      -2.33860000       2.10000000
C       -3.86150000      -1.05960000       1.65210000
C       -3.98640000      -2.29130000       0.79630000
C       -2.70840000      -2.70250000       0.01290000
H        0.91300000       1.66860000      -1.10620000
H       -0.05460000      -0.38730000      -1.63610000
H        0.85670000      -0.44220000      -0.11400000
H       -1.21770000       0.10270000       1.14060000
H       -2.12270000       0.15740000      -0.37110000
H       -0.65290000      -2.35530000      -0.31360000
H       -1.29070000      -3.54960000       1.68630000
H       -3.48510000      -2.82600000       3.02550000
H       -4.77010000      -0.83100000       2.20370000
H       -3.31180000      -0.17920000       1.35540000
H       -4.94830000      -2.73720000       0.57860000
H       -2.75330000      -3.46120000      -0.75930000
