12
Properties=species:S:1:pos:R:3 gdb_3958=T pbc="F F F"
O        0.13930000       1.26430000      -0.39590000
C       -0.00470000       0.02720000       0.26960000
C       -1.40990000      -0.48880000       0.16640000
N       -2.03930000      -1.15640000       1.11830000
N       -3.23900000      -1.41400000       0.53840000
C       -3.28220000      -0.89320000      -0.70190000
N       -2.13730000      -0.30120000      -0.97670000
H       -0.39970000       1.20680000      -1.19480000
H        0.68540000      -0.72960000      -0.14090000
H        0.25870000       0.17020000       1.32120000
H       -3.94720000      -1.91360000       1.05090000
H       -4.14330000      -0.96760000      -1.34870000
