16
Properties=species:S:1:pos:R:3 gdb_12835=T pbc="F F F"
O       -0.31040000       1.46160000      -0.15170000
C       -0.08060000       0.07040000      -0.10100000
C        1.16510000      -0.41210000      -0.94110000
N        1.92710000      -0.48730000       0.36200000
C        0.71490000      -0.48370000       1.05310000
N        0.13930000      -1.04990000       2.02970000
C       -1.31480000      -0.87930000       1.71040000
C       -1.40140000      -0.66060000       0.15390000
H        0.51270000       1.91240000       0.06940000
H        1.03640000      -1.38740000      -1.42180000
H        1.57070000       0.31620000      -1.64720000
H        2.61480000      -1.21170000       0.53490000
H       -1.84900000      -1.77910000       2.02630000
H       -1.74050000      -0.03210000       2.26190000
H       -2.26750000      -0.07660000      -0.16400000
H       -1.42360000      -1.63190000      -0.34890000
