19
Properties=species:S:1:pos:R:3 gdb_121014=T pbc="F F F"
C        0.83380000       0.81870000      -0.47800000
O        1.04150000       0.44430000       0.86530000
C       -0.00980000      -0.31510000       1.42590000
C        0.00110000      -1.79180000       0.99730000
C        1.26400000      -2.56410000       1.42740000
C        0.74140000      -3.67340000       2.30500000
C       -0.59080000      -3.66230000       2.43530000
C       -1.17000000      -2.53850000       1.66680000
O       -2.33650000      -2.22670000       1.58000000
H       -0.10970000       1.37200000      -0.60190000
H        1.66510000       1.46870000      -0.76180000
H        0.81850000      -0.04290000      -1.16220000
H        0.12510000      -0.25180000       2.51180000
H       -0.99040000       0.11860000       1.18180000
H       -0.15100000      -1.84690000      -0.08590000
H        1.82340000      -2.97040000       0.57620000
H        1.97190000      -1.92490000       1.96900000
H        1.40650000      -4.39240000       2.77250000
H       -1.19960000      -4.34820000       3.01020000
