23
Properties=species:S:1:pos:R:3 gdb_118993=T pbc="F F F"
C        0.10120000       1.54610000       0.05090000
C       -0.02130000       0.01150000       0.03020000
C       -1.48550000      -0.45770000       0.02710000
C       -2.30910000      -0.06300000       1.25010000
O       -3.59900000      -0.63670000       1.08770000
C        0.75850000      -0.55900000      -1.19170000
C        2.14660000      -0.94460000      -0.62130000
O        2.15290000      -0.54850000       0.74700000
C        0.80780000      -0.58810000       1.18830000
H        1.15450000       1.84130000       0.03600000
H       -0.39030000       1.99090000      -0.82120000
H       -0.34930000       1.98210000       0.94830000
H       -1.99580000      -0.07320000      -0.86450000
H       -1.51430000      -1.55180000      -0.04870000
H       -1.82610000      -0.43370000       2.16900000
H       -2.37470000       1.03200000       1.33520000
H       -4.14040000      -0.37630000       1.83840000
H        0.25060000      -1.43650000      -1.60130000
H        0.83220000       0.17810000      -1.99560000
H        2.31430000      -2.02930000      -0.70310000
H        2.97980000      -0.43750000      -1.11610000
H        0.74870000      -0.01840000       2.12000000
H        0.48850000      -1.62550000       1.39340000
