16
Properties=species:S:1:pos:R:3 gdb_79431=T pbc="F F F"
O        0.28730000       1.29340000       0.00670000
C        0.19950000      -0.10740000       0.11130000
C       -0.10310000      -0.70770000       1.50140000
C       -1.61390000      -0.27730000       1.42430000
N       -2.18660000      -1.64390000       1.66990000
C       -0.94030000      -1.88050000       0.87230000
C       -0.47560000      -3.21760000       0.41500000
O        0.61930000      -3.42420000      -0.04970000
C       -1.23060000      -0.63020000      -0.04630000
H        1.20400000       1.55140000       0.14240000
H        0.96860000      -0.62160000      -0.47490000
H        0.52110000      -0.78010000       2.39390000
H       -2.07710000       0.63490000       1.79410000
H       -2.03350000      -1.91450000       2.64610000
H       -1.23200000      -4.02700000       0.52250000
H       -1.89360000      -0.62500000      -0.91010000
