19
Properties=species:S:1:pos:R:3 gdb_111864=T pbc="F F F"
C        0.22710000       0.86180000       0.49410000
O       -0.42620000      -0.11360000      -0.30500000
C        0.36960000      -0.57880000      -1.33790000
C        1.47060000      -1.60400000      -1.06730000
O        1.44670000      -2.24380000       0.18100000
C        0.17080000      -2.85660000       0.33280000
O       -0.45150000      -2.90130000      -0.93710000
C        0.22340000      -2.01820000      -1.80040000
C        0.09660000      -2.40330000      -3.24540000
H        1.12940000       0.45060000       0.96320000
H        0.50400000       1.74480000      -0.10030000
H       -0.48150000       1.16470000       1.26810000
H        0.58650000       0.14930000      -2.12520000
H        2.46580000      -1.53470000      -1.49150000
H        0.30450000      -3.88010000       0.70540000
H       -0.44020000      -2.26760000       1.02720000
H       -0.95130000      -2.37230000      -3.56110000
H        0.66290000      -1.71510000      -3.87860000
H        0.47520000      -3.41740000      -3.40640000
