20
Properties=species:S:1:pos:R:3 gdb_62974=T pbc="F F F"
C       -0.10570000       1.55540000      -0.18800000
C       -0.01390000       0.04060000      -0.05970000
C       -1.36190000      -0.58950000       0.28370000
C        0.68430000      -0.69650000      -1.22190000
N        2.05890000      -0.15730000      -1.32050000
C        1.75480000      -1.21810000      -0.33650000
C        1.14360000      -0.53090000       0.89810000
C        1.96870000       0.38360000       1.65980000
C        2.64000000       1.14320000       2.30720000
H        0.85610000       1.97530000      -0.48650000
H       -0.85600000       1.82900000      -0.93900000
H       -0.39970000       2.01030000       0.76370000
H       -2.11230000      -0.33730000      -0.47430000
H       -1.29420000      -1.68190000       0.33610000
H       -1.72770000      -0.22560000       1.24990000
H        0.20200000      -1.16010000      -2.07500000
H        2.50790000      -0.60740000      -2.11740000
H        2.28560000      -2.16200000      -0.35000000
H        0.70520000      -1.27840000       1.56710000
H        3.24260000       1.81410000       2.86730000
