13
Properties=species:S:1:pos:R:3 gdb_129330=T pbc="F F F"
N       -0.14970000       1.33030000       0.19930000
C        0.00990000       0.08340000       0.08950000
O        1.14540000      -0.67310000       0.07370000
N        0.75490000      -2.04580000      -0.07420000
N       -0.48770000      -2.09100000      -0.14010000
N       -1.00830000      -0.85270000      -0.04800000
C       -2.42580000      -0.58860000      -0.08300000
C       -3.03690000      -0.78000000      -1.47130000
O       -4.21310000      -0.93480000      -1.64230000
H        0.73390000       1.82180000       0.29680000
H       -2.95810000      -1.21030000       0.64090000
H       -2.53920000       0.46270000       0.20550000
H       -2.30560000      -0.74780000      -2.30870000
