17
Properties=species:S:1:pos:R:3 gdb_69867=T pbc="F F F"
C        0.05900000       1.49490000       0.06910000
C       -0.09920000       0.00940000      -0.04010000
C       -0.97410000      -0.81900000       0.81110000
N        0.49760000      -0.94200000       0.96660000
C        1.07940000      -1.73040000      -0.17600000
C        0.16720000      -2.24530000      -1.23680000
C        0.52660000      -0.77110000      -1.23510000
C        1.19410000      -0.13780000      -2.31850000
N        1.73270000       0.39050000      -3.19780000
H        1.07920000       1.80150000      -0.18200000
H       -0.62450000       2.00710000      -0.61730000
H       -0.16010000       1.82400000       1.08800000
H       -1.41790000      -0.32180000       1.66880000
H       -1.56950000      -1.64050000       0.43170000
H        2.09630000      -2.08030000      -0.05750000
H        0.68410000      -2.80540000      -2.00940000
H       -0.84790000      -2.58040000      -1.06310000
