17
Properties=species:S:1:pos:R:3 gdb_71421=T pbc="F F F"
C       -0.05280000       1.44690000      -0.02310000
C       -0.00150000      -0.04540000       0.02910000
N       -1.16800000      -0.90630000      -0.30420000
C       -0.37210000      -2.02420000       0.30430000
C        0.59870000      -1.00410000       1.02070000
C        1.23270000      -0.87180000      -0.35850000
C        0.70720000      -2.24290000      -0.80680000
C        1.63030000      -3.33000000      -0.51760000
N        2.35880000      -4.19840000      -0.28910000
H        0.91010000       1.87830000       0.26660000
H       -0.29070000       1.79030000      -1.03540000
H       -0.81460000       1.84170000       0.65840000
H       -1.90730000      -0.66940000       0.35870000
H       -0.90910000      -2.86410000       0.73680000
H        1.01740000      -0.91570000       2.01390000
H        2.17640000      -0.41280000      -0.62170000
H        0.31030000      -2.33890000      -1.82160000
