21
Properties=species:S:1:pos:R:3 gdb_68358=T pbc="F F F"
C        0.04330000       1.60180000       0.05820000
C        0.00010000       0.09430000      -0.11470000
C        0.88080000      -0.52600000      -1.22800000
C        1.34690000      -1.48360000      -0.10730000
O        0.81410000      -0.57390000       0.89710000
C        0.64830000      -2.81720000      -0.07320000
C       -0.66770000      -2.96600000      -0.23460000
C       -1.67480000      -1.88590000      -0.56100000
C       -1.43350000      -0.45340000      -0.03420000
H        1.07880000       1.94650000       0.12120000
H       -0.44380000       2.10370000      -0.78500000
H       -0.47290000       1.90140000       0.97670000
H        0.39020000      -0.96250000      -2.09880000
H        1.67140000       0.15340000      -1.55350000
H        2.42800000      -1.60140000       0.01150000
H        1.26120000      -3.69410000       0.11820000
H       -1.08030000      -3.97170000      -0.18060000
H       -1.77610000      -1.85070000      -1.65660000
H       -2.66010000      -2.20960000      -0.20600000
H       -1.70990000      -0.40510000       1.02540000
H       -2.11490000       0.22000000      -0.56880000
