21
Properties=species:S:1:pos:R:3 gdb_114843=T pbc="F F F"
O       -0.16140000       1.52070000       0.21120000
C        0.03770000       0.12140000       0.05040000
C       -1.33880000      -0.51610000      -0.06220000
C       -2.12070000      -0.14180000      -1.36700000
C       -2.55100000      -1.52420000      -1.89090000
C       -2.81800000      -2.31090000      -0.59980000
C       -1.38060000      -2.06820000      -0.08670000
C       -0.60080000      -2.59530000      -1.30310000
O       -1.38870000      -2.17830000      -2.43270000
H        0.69810000       1.95120000       0.19170000
H        0.63450000      -0.08540000      -0.85080000
H        0.58050000      -0.30230000       0.91210000
H       -1.90520000      -0.17620000       0.81220000
H       -2.97750000       0.50570000      -1.16040000
H       -1.48640000       0.36560000      -2.09820000
H       -3.32430000      -1.52400000      -2.65990000
H       -3.58650000      -1.86490000       0.03680000
H       -3.05110000      -3.36300000      -0.78270000
H       -1.10500000      -2.54510000       0.85560000
H        0.41370000      -2.19100000      -1.39130000
H       -0.52580000      -3.69170000      -1.28930000
