23
Properties=species:S:1:pos:R:3 gdb_118129=T pbc="F F F"
C        0.83360000       1.15520000      -0.33110000
C        0.26740000      -0.06140000       0.38320000
O       -0.76290000      -0.60510000      -0.41970000
C       -1.29380000      -1.84730000       0.03200000
C       -2.22410000      -1.70220000       1.23920000
C       -1.97310000      -2.51940000      -1.16410000
O       -3.38860000      -2.73380000      -1.11790000
C       -2.87410000      -1.84080000      -2.11240000
C       -3.28890000      -0.39370000      -2.04990000
H        1.63790000       1.60450000       0.25910000
H        1.23300000       0.87410000      -1.30960000
H        0.05400000       1.90730000      -0.48300000
H        1.05540000      -0.81650000       0.54500000
H       -0.11170000       0.22560000       1.37600000
H       -0.44830000      -2.49140000       0.32600000
H       -1.69310000      -1.26370000       2.08860000
H       -3.08870000      -1.08010000       1.00090000
H       -2.59670000      -2.68470000       1.54270000
H       -1.42570000      -3.37990000      -1.55190000
H       -2.90510000      -2.26570000      -3.11910000
H       -3.17950000       0.02190000      -1.04930000
H       -2.66600000       0.19810000      -2.72800000
H       -4.33160000      -0.29200000      -2.37010000
