22
Properties=species:S:1:pos:R:3 gdb_57097=T pbc="F F F"
C        0.11120000       1.60100000      -0.03740000
C        0.03640000       0.06100000      -0.02790000
C        0.67050000      -0.47570000      -1.23890000
N        1.18280000      -0.89090000      -2.18850000
C        0.66220000      -0.57150000       1.23450000
C       -0.02620000      -0.14330000       2.55130000
C        0.25570000      -1.28790000       3.56680000
C        0.93130000      -2.42340000       2.75320000
C        0.59930000      -2.10770000       1.28720000
H        1.15040000       1.93780000       0.01890000
H       -0.32920000       2.00890000      -0.95060000
H       -0.43160000       2.00750000       0.81900000
H       -1.02060000      -0.23770000      -0.06540000
H        1.71810000      -0.27010000       1.26950000
H        0.32520000       0.82780000       2.90890000
H       -1.10580000      -0.04480000       2.38180000
H        0.89430000      -0.95190000       4.38790000
H       -0.67810000      -1.63200000       4.02060000
H        2.01750000      -2.39460000       2.89570000
H        0.59790000      -3.41850000       3.05890000
H       -0.42080000      -2.43920000       1.04850000
H        1.27350000      -2.58840000       0.57400000
