16
Properties=species:S:1:pos:R:3 gdb_595=T pbc="F F F"
O       -0.06670000       1.40120000       0.02600000
C       -0.03710000      -0.01220000       0.16070000
C       -1.40930000      -0.55020000      -0.23040000
C       -1.49250000      -2.05850000      -0.14520000
C       -1.79260000      -2.73550000       1.17100000
C       -2.81920000      -2.74160000       0.06460000
H        0.79500000       1.74540000       0.27750000
H        0.73440000      -0.45850000      -0.48890000
H        0.19660000      -0.31250000       1.19460000
H       -2.16150000      -0.09590000       0.42620000
H       -1.63760000      -0.21040000      -1.24830000
H       -0.79350000      -2.58340000      -0.79280000
H       -1.28380000      -3.66350000       1.40760000
H       -1.98330000      -2.10270000       2.03200000
H       -3.69650000      -2.11440000       0.18440000
H       -3.00870000      -3.67360000      -0.45650000
