19
Properties=species:S:1:pos:R:3 gdb_109800=T pbc="F F F"
C       -0.18090000       1.08550000      -0.24430000
O       -0.41300000      -0.28780000      -0.53210000
C        0.58940000      -0.83670000      -1.33870000
C        1.69020000      -1.56020000      -0.60330000
O        1.61340000      -1.59810000       0.79060000
C        0.67310000      -2.34740000      -1.41260000
C       -0.27990000      -3.26770000      -0.70810000
C       -1.72700000      -3.02190000      -0.60960000
O       -1.20840000      -3.96440000      -1.54560000
H        0.77520000       1.23310000       0.27450000
H       -0.17930000       1.68540000      -1.16490000
H       -0.99940000       1.41900000       0.39710000
H        0.80780000      -0.26010000      -2.23710000
H        2.71830000      -1.50320000      -0.94510000
H        0.75030000      -1.22970000       1.02520000
H        1.01420000      -2.73610000      -2.36860000
H        0.17780000      -3.89660000       0.05580000
H       -2.28880000      -3.44820000       0.22110000
H       -2.13520000      -2.10940000      -1.03530000
