17
Properties=species:S:1:pos:R:3 gdb_24126=T pbc="F F F"
C        0.11130000       1.31370000       0.74380000
C       -0.08510000      -0.03600000       0.08540000
C       -1.34340000      -0.41180000      -0.56900000
O       -0.21040000      -0.01080000      -1.34690000
C        1.42740000       1.92950000       0.38170000
N        2.30620000       2.45260000       1.21010000
C        3.33460000       2.90750000       0.41520000
C        3.07340000       2.65310000      -0.90480000
N        1.84640000       2.02990000      -0.91460000
H       -0.71400000       1.97460000       0.44810000
H        0.07620000       1.21350000       1.83200000
H        0.56390000      -0.83350000       0.44760000
H       -1.61790000      -1.46100000      -0.66070000
H       -2.17730000       0.28860000      -0.56360000
H        4.20150000       3.39000000       0.84020000
H        3.62400000       2.84600000      -1.81030000
H        1.34800000       1.65620000      -1.70700000
