17
Properties=species:S:1:pos:R:3 gdb_30563=T pbc="F F F"
C       -0.29150000       1.62820000       0.07080000
N       -0.00300000       0.21120000       0.03320000
C       -0.99040000      -0.57760000      -0.11570000
N       -0.87610000      -1.93840000      -0.17080000
C        0.29500000      -2.68010000      -0.07610000
C        1.59570000      -2.27110000       0.08890000
N        2.31890000      -3.45180000       0.11210000
C        1.44420000      -4.47830000      -0.03540000
N        0.20620000      -4.04850000      -0.15270000
H        0.25170000       2.14540000      -0.73010000
H       -1.36340000       1.86720000      -0.03670000
H        0.05720000       2.05930000       1.01770000
H       -2.03180000      -0.23990000      -0.21500000
H       -1.71070000      -2.48830000      -0.28780000
H        2.03170000      -1.29600000       0.18550000
H        3.31590000      -3.52650000       0.21980000
H        1.75550000      -5.51160000      -0.05110000
