16
Properties=species:S:1:pos:R:3 gdb_99414=T pbc="F F F"
C        0.08870000       1.55760000       0.00940000
C        0.00070000       0.03410000       0.00230000
C       -1.47580000      -0.51000000       0.01340000
C       -2.17890000      -0.07650000       1.23250000
C       -2.72760000       0.28540000       2.23610000
C       -2.20190000      -0.06340000      -1.18720000
C       -2.76970000       0.30920000      -2.17620000
C       -1.40690000      -1.99170000       0.00480000
N       -1.31630000      -3.14270000      -0.00210000
H        1.13790000       1.86560000       0.00100000
H       -0.39890000       1.98640000      -0.87020000
H       -0.38200000       1.97720000       0.90250000
H        0.48390000      -0.38010000      -0.88740000
H        0.50070000      -0.38930000       0.87820000
H       -3.22660000       0.59850000       3.12040000
H       -3.28540000       0.63170000      -3.04750000
