17
Properties=species:S:1:pos:R:3 gdb_14952=T pbc="F F F"
O        0.02800000      -0.05820000       0.11740000
C        0.05430000       1.12830000      -0.09480000
C        1.32190000       1.94910000      -0.11010000
C        1.35960000       2.80860000       1.18550000
O        2.58040000       3.51050000       1.28200000
C        3.69200000       2.62320000       1.31370000
C        3.74370000       1.79150000       0.03150000
N        2.48920000       1.09750000      -0.25180000
H       -0.88240000       1.70940000      -0.24410000
H        1.27360000       2.64840000      -0.95880000
H        0.56300000       3.55920000       1.19280000
H        1.22860000       2.14600000       2.05870000
H        4.58250000       3.24960000       1.42340000
H        3.61840000       1.96230000       2.19470000
H        3.96350000       2.46310000      -0.80940000
H        4.55210000       1.05500000       0.08200000
H        2.36700000       0.26670000       0.31810000
