21
Properties=species:S:1:pos:R:3 gdb_113108=T pbc="F F F"
C        0.06290000       1.18480000       0.30000000
O       -0.32080000      -0.06940000      -0.21890000
C        0.51680000      -0.52600000      -1.24370000
C        1.90980000      -1.11820000      -0.87550000
C        1.63060000      -2.25690000      -1.89670000
C        2.08570000      -3.67540000      -1.54160000
C        1.61040000      -4.69330000      -2.55390000
O        2.32950000      -5.41360000      -3.19810000
C        0.11710000      -1.89590000      -1.82170000
H        1.06350000       1.15380000       0.75680000
H        0.06470000       1.96310000      -0.47950000
H       -0.66510000       1.45600000       1.06800000
H        0.61190000       0.23810000      -2.03180000
H        2.80210000      -0.50570000      -1.02220000
H        1.89240000      -1.49600000       0.15210000
H        2.03340000      -1.98440000      -2.87820000
H        3.17650000      -3.73740000      -1.47450000
H        1.66380000      -3.94930000      -0.56360000
H        0.50340000      -4.73230000      -2.68340000
H       -0.39490000      -2.47860000      -1.04920000
H       -0.47560000      -1.91610000      -2.73840000
