21
Properties=species:S:1:pos:R:3 gdb_107931=T pbc="F F F"
C       -0.09190000       1.46270000      -0.00250000
C        0.03940000      -0.03100000      -0.01530000
C        0.95990000      -0.87700000      -0.89600000
C        0.09850000      -2.09580000      -0.45790000
C       -0.04900000      -3.30260000      -1.33760000
O        1.22490000      -3.92990000      -1.42720000
C        0.42110000      -2.23260000       1.05870000
C       -0.28980000      -0.89230000       1.21970000
C       -1.05390000      -1.07470000      -0.07400000
H        0.81060000       1.93950000       0.39850000
H       -0.25550000       1.85760000      -1.01190000
H       -0.93640000       1.78080000       0.61880000
H        0.81360000      -0.64290000      -1.95600000
H        2.03220000      -0.91250000      -0.67230000
H       -0.80130000      -3.98590000      -0.90950000
H       -0.41350000      -2.99560000      -2.33230000
H        1.13870000      -4.70580000      -1.98850000
H       -0.15020000      -3.04620000       1.51710000
H        1.47580000      -2.31820000       1.34150000
H       -0.64610000      -0.42700000       2.13090000
H       -2.10720000      -1.01450000      -0.31080000
