22
Properties=species:S:1:pos:R:3 gdb_58633=T pbc="F F F"
C       -0.48500000       1.30920000       0.12550000
C        0.08200000      -0.11610000       0.08790000
C        0.81310000      -0.36850000      -1.24230000
C        0.98340000      -0.47360000       1.28150000
C        2.11980000       0.40430000       1.66980000
N        0.93730000       0.28740000       2.54050000
C        1.14620000      -1.95830000       1.47250000
C        1.11580000      -2.59120000       2.79450000
O       -0.01550000      -2.66570000       1.92000000
H        0.30420000       2.07020000       0.13080000
H       -1.09390000       1.48790000      -0.76600000
H       -1.13260000       1.47450000       0.99220000
H       -0.76970000      -0.80610000       0.14210000
H        1.66440000       0.31180000      -1.35690000
H        1.19200000      -1.39190000      -1.31470000
H        0.13940000      -0.20800000      -2.09010000
H        3.03030000      -0.03160000       2.07280000
H        2.27060000       1.32890000       1.11830000
H        0.35070000       1.10950000       2.43440000
H        1.68700000      -2.47010000       0.67470000
H        1.64460000      -3.53110000       2.94990000
H        0.98430000      -1.95750000       3.66670000
