24
Properties=species:S:1:pos:R:3 gdb_100084=T pbc="F F F"
C       -0.03970000       1.46100000       0.28890000
C       -0.04000000      -0.02680000      -0.07920000
C        0.73220000      -0.42500000      -1.36490000
C        0.19690000       0.35080000      -2.58300000
C        2.23930000      -0.15790000      -1.19280000
C        0.48950000      -1.95130000      -1.56250000
C        1.32310000      -2.59310000      -2.66780000
N        2.22120000      -3.53260000      -2.24370000
O        1.20260000      -2.31350000      -3.84720000
H        0.97210000       1.84530000       0.45080000
H       -0.50970000       2.07320000      -0.48610000
H       -0.59970000       1.61970000       1.21590000
H        0.37200000      -0.59910000       0.76320000
H       -1.08060000      -0.36000000      -0.19030000
H        0.44490000       1.41420000      -2.51360000
H        0.61750000      -0.04660000      -3.50810000
H       -0.89400000       0.26400000      -2.64980000
H        2.65070000      -0.71890000      -0.34490000
H        2.79590000      -0.44470000      -2.09030000
H        2.43640000       0.90300000      -1.01450000
H        0.66510000      -2.46730000      -0.61100000
H       -0.56210000      -2.11120000      -1.82480000
H        2.39890000      -3.70730000      -1.27100000
H        2.83680000      -3.93990000      -2.92910000
