15
Properties=species:S:1:pos:R:3 gdb_125105=T pbc="F F F"
C       -0.01320000       1.53890000      -0.04220000
C       -0.02810000       0.03740000      -0.05750000
C       -1.14570000      -0.71160000       0.09400000
O       -2.37350000      -0.22510000       0.27570000
C       -1.06110000      -2.17210000       0.06490000
N       -2.14210000      -2.83330000       0.21220000
O        0.15280000      -2.74810000      -0.11590000
N        1.33360000      -1.99340000      -0.27640000
C        1.18590000      -0.71310000      -0.24030000
H        0.63020000       1.91920000       0.75940000
H        0.37490000       1.93960000      -0.98570000
H       -1.01860000       1.93380000       0.10940000
H       -2.94410000      -1.01970000       0.34840000
H       -2.00160000      -3.84050000       0.18030000
H        2.12600000      -0.18090000      -0.36880000
