17
Properties=species:S:1:pos:R:3 gdb_105978=T pbc="F F F"
C        0.15150000       1.33250000      -0.14820000
O       -0.14830000      -0.02450000       0.15220000
C        0.56770000      -0.52040000       1.19910000
C        2.03490000      -0.93330000       1.32130000
C        1.98180000      -0.67250000       2.85180000
C        0.51340000      -0.22510000       2.74260000
C        0.87140000      -1.68450000       3.00460000
O        0.61850000      -2.48960000       4.08210000
C        0.90290000      -1.96760000       1.45880000
H        1.21330000       1.45770000      -0.39690000
H       -0.46100000       1.60950000      -1.00860000
H       -0.09270000       1.99250000       0.69500000
H        2.84600000      -0.92560000       0.60510000
H        2.72750000      -0.34340000       3.56310000
H       -0.02390000       0.48320000       3.35920000
H       -0.33470000      -2.62130000       4.14840000
H        0.70820000      -2.83910000       0.84830000
