14
Properties=species:S:1:pos:R:3 gdb_66272=T pbc="F F F"
C       -0.15030000       1.61980000       0.07520000
C        0.07380000       0.11420000      -0.00240000
O        0.97080000      -0.21290000      -1.05350000
C        1.70480000      -1.33540000      -0.62130000
O        1.79030000      -1.24860000       0.80240000
C        0.81140000      -0.43070000       1.25180000
O        0.60120000      -0.17520000       2.39490000
C       -1.20250000      -0.61880000      -0.16390000
N       -2.18780000      -1.20490000      -0.30600000
H        0.81680000       2.12200000       0.14550000
H       -0.67700000       1.97160000      -0.81370000
H       -0.74080000       1.85030000       0.96430000
H        1.20670000      -2.27760000      -0.88590000
H        2.70940000      -1.28620000      -1.04410000
