19
Properties=species:S:1:pos:R:3 gdb_64037=T pbc="F F F"
C       -0.03740000       1.54930000       0.01340000
C       -0.02790000       0.01620000      -0.00080000
C       -1.45090000      -0.55400000      -0.02490000
C        0.84770000      -0.55090000      -1.17350000
N        1.95970000      -1.30750000      -0.58460000
C        1.82940000      -1.24310000       0.67810000
N        0.73680000      -0.51860000       1.15860000
C        0.44890000      -0.34980000       2.48870000
O        1.10540000      -0.80720000       3.39780000
H        0.98210000       1.94310000       0.05310000
H       -0.51620000       1.92850000      -0.89510000
H       -0.59200000       1.94260000       0.87150000
H       -1.96740000      -0.23160000      -0.93460000
H       -1.43090000      -1.64750000      -0.01170000
H       -2.03930000      -0.21020000       0.83200000
H        0.26450000      -1.20890000      -1.82740000
H        1.24600000       0.25360000      -1.80180000
H        2.49240000      -1.70120000       1.40160000
H       -0.46090000       0.25800000       2.64840000
