14
Properties=species:S:1:pos:R:3 gdb_27592=T pbc="F F F"
N       -0.01920000       1.34190000      -0.10920000
C        0.00590000      -0.01840000      -0.04610000
N       -1.18250000      -0.64130000      -0.03230000
C       -1.14570000      -1.97950000      -0.01740000
C        0.05950000      -2.69110000      -0.01300000
C        1.22040000      -1.92790000      -0.01470000
N        1.22170000      -0.59850000      -0.02930000
C       -2.39600000      -2.67550000      -0.00220000
C       -3.43010000      -3.29000000       0.01080000
H        0.83660000       1.82760000       0.09750000
H       -0.89300000       1.79670000       0.09240000
H        0.07780000      -3.77200000       0.00040000
H        2.19690000      -2.40770000      -0.00110000
H       -4.35020000      -3.82060000       0.02160000
