18
Properties=species:S:1:pos:R:3 gdb_102789=T pbc="F F F"
C       -0.11600000       1.52910000      -0.32320000
O        0.15380000       0.17750000       0.00440000
C        0.65310000      -0.59240000      -1.05300000
C        1.05320000      -1.95480000      -0.45750000
C        2.18580000      -1.83080000       0.54120000
O        3.18150000      -2.50880000       0.51480000
C       -0.40280000      -0.80780000      -2.16480000
N        0.12230000      -1.13030000      -3.38100000
O       -1.59340000      -0.71200000      -1.95610000
H        0.78510000       2.03480000      -0.70310000
H       -0.91840000       1.60930000      -1.06470000
H       -0.43160000       2.01830000       0.60040000
H        1.53970000      -0.10510000      -1.49970000
H        0.16820000      -2.34660000       0.06060000
H        1.34670000      -2.66300000      -1.23600000
H        2.03330000      -1.05090000       1.31560000
H        1.11130000      -1.21370000      -3.53990000
H       -0.50850000      -1.35740000      -4.13240000
