17
Properties=species:S:1:pos:R:3 gdb_13837=T pbc="F F F"
N       -0.21680000       1.30130000       0.69130000
C        0.04440000       0.19570000      -0.06550000
O        1.15430000      -0.03950000      -0.50650000
C       -1.15260000      -0.70980000      -0.33720000
C       -1.62930000      -0.60310000      -1.81990000
C       -1.99310000      -2.02610000      -2.16940000
C       -1.55960000      -2.89280000      -1.25770000
C       -0.82230000      -2.21340000      -0.12960000
H        0.52870000       1.96000000       0.84760000
H       -1.13810000       1.52300000       1.02330000
H       -1.98900000      -0.43730000       0.31530000
H       -2.46260000       0.09930000      -1.93400000
H       -0.81740000      -0.24150000      -2.46470000
H       -2.50440000      -2.28310000      -3.09050000
H       -1.66440000      -3.97050000      -1.31600000
H        0.25970000      -2.37420000      -0.21500000
H       -1.12490000      -2.56770000       0.86210000
