24
Properties=species:S:1:pos:R:3 gdb_116804=T pbc="F F F"
C        0.21930000       0.82130000      -0.69130000
O       -0.44900000       0.17110000       0.38010000
C       -1.25760000      -0.85370000       0.02220000
N       -1.89320000      -1.48430000       0.90270000
C       -2.76440000      -2.59360000       0.55240000
C       -2.96470000      -2.94280000      -0.92930000
C       -3.97670000      -4.08000000      -1.16970000
C       -4.31730000      -4.18830000      -2.66240000
C       -3.48300000      -5.43200000      -0.63370000
H        0.82570000       1.60970000      -0.24340000
H        0.87680000       0.13230000      -1.23680000
H       -0.48960000       1.27380000      -1.39630000
H       -1.27790000      -1.04200000      -1.05910000
H       -2.38680000      -3.46970000       1.09470000
H       -3.74510000      -2.38150000       1.00130000
H       -3.31500000      -2.04800000      -1.46140000
H       -2.00390000      -3.22020000      -1.38590000
H       -4.90180000      -3.82060000      -0.63400000
H       -3.42670000      -4.44120000      -3.25060000
H       -5.06400000      -4.96880000      -2.84260000
H       -4.71580000      -3.24540000      -3.05140000
H       -2.54480000      -5.72410000      -1.12130000
H       -3.30570000      -5.41260000       0.44520000
H       -4.21710000      -6.22020000      -0.83130000
