18
Properties=species:S:1:pos:R:3 gdb_51163=T pbc="F F F"
O       -0.63290000       0.55920000       0.50780000
C        0.26610000       0.84970000      -0.23820000
C        1.22000000       2.00930000      -0.03650000
C        1.18460000       2.96620000      -1.21370000
C        1.95570000       2.71240000      -2.47020000
N        2.39980000       3.75500000      -1.53900000
C        1.94270000       5.12090000      -1.88400000
C        0.43330000       5.08920000      -1.78400000
C        0.01800000       3.88710000      -1.38840000
H        0.45250000       0.26210000      -1.16710000
H        0.96920000       2.51580000       0.89990000
H        2.23690000       1.60510000       0.04500000
H        2.63170000       1.86310000      -2.54150000
H        1.48960000       3.00900000      -3.40740000
H        2.38440000       5.83760000      -1.17900000
H        2.30040000       5.39920000      -2.88350000
H       -0.19700000       5.93800000      -2.02170000
H       -1.00560000       3.58250000      -1.20760000
