20
Properties=species:S:1:pos:R:3 gdb_93624=T pbc="F F F"
C       -0.37550000       1.49990000      -0.07480000
C        0.05420000       0.03550000      -0.08730000
C        0.95510000      -0.37450000      -1.26230000
O        2.00710000       0.57880000      -1.33800000
C        1.47060000      -1.75470000      -0.83640000
C        1.81560000      -1.57910000       0.65650000
C        0.84010000      -0.46730000       1.17700000
C        1.55930000       0.59130000       1.88330000
N        2.12570000       1.41320000       2.46680000
H        0.49140000       2.16230000      -0.05260000
H       -0.95980000       1.73070000      -0.97120000
H       -0.99870000       1.71970000       0.79750000
H       -0.84090000      -0.59440000      -0.15510000
H        0.39080000      -0.40820000      -2.20580000
H        2.64750000       0.27600000      -1.98910000
H        0.67570000      -2.49700000      -0.97370000
H        2.32790000      -2.08660000      -1.43110000
H        1.70800000      -2.50440000       1.22600000
H        2.84720000      -1.24310000       0.77100000
H        0.12840000      -0.88710000       1.89470000
