21
Properties=species:S:1:pos:R:3 gdb_119178=T pbc="F F F"
O       -0.08700000       1.48590000       0.16820000
C        0.00840000       0.12180000      -0.20830000
C       -1.29950000      -0.54280000       0.21100000
C       -1.38210000      -2.05530000       0.05840000
C       -0.33620000      -2.81420000      -0.68930000
N       -0.41530000      -2.91060000       0.77860000
C       -2.76430000      -2.66010000       0.06480000
C       -3.96170000      -1.95890000       0.59060000
N       -3.81940000      -2.20770000      -0.85670000
H        0.70990000       1.93700000      -0.12550000
H        0.15480000       0.01750000      -1.29380000
H        0.86700000      -0.36260000       0.28660000
H       -1.48530000      -0.27890000       1.25950000
H       -2.10120000      -0.06610000      -0.36610000
H       -0.61150000      -3.72110000      -1.22130000
H        0.49360000      -2.27330000      -1.13370000
H        0.31040000      -2.33830000       1.20410000
H       -2.72570000      -3.74130000       0.17400000
H       -4.74890000      -2.52840000       1.07660000
H       -3.85140000      -0.94330000       0.95890000
H       -3.53110000      -1.35140000      -1.32570000
