16
Properties=species:S:1:pos:R:3 gdb_129062=T pbc="F F F"
N       -0.00720000       1.33570000       0.02770000
C       -0.02560000       0.04470000       0.03230000
C        1.18610000      -0.80850000       0.02720000
N        1.23170000      -2.11060000       0.03100000
N        0.02630000      -2.67400000       0.04060000
C       -0.49410000      -4.04040000       0.04910000
C       -1.92110000      -3.37110000       0.05630000
C       -1.18400000      -2.03930000       0.04680000
C       -1.28650000      -0.69680000       0.04320000
H        0.95750000       1.67470000       0.02010000
H        2.15340000      -0.31170000       0.01950000
H       -0.24570000      -4.61760000      -0.84600000
H       -0.23390000      -4.61080000       0.94520000
H       -2.52440000      -3.57400000      -0.83000000
H       -2.51200000      -3.56770000       0.95230000
H       -2.22610000      -0.16100000       0.04800000
