15
Properties=species:S:1:pos:R:3 gdb_112237=T pbc="F F F"
O       -0.08720000       1.45290000      -0.24410000
C        0.03450000       0.05110000      -0.12540000
C       -1.28860000      -0.57280000       0.26870000
O       -2.28450000      -0.36460000      -0.79920000
C       -2.42060000      -1.70790000      -1.02640000
O       -3.08150000      -2.25220000      -1.84420000
C       -1.46640000      -2.11020000       0.12860000
C       -0.32940000      -2.94530000      -0.18610000
C        0.61430000      -3.63990000      -0.45140000
H       -0.73850000       1.62500000      -0.93400000
H        0.39900000      -0.41560000      -1.05200000
H        0.77510000      -0.14270000       0.65730000
H       -1.66690000      -0.14560000       1.19970000
H       -2.04500000      -2.53290000       0.95650000
H        1.44510000      -4.25740000      -0.68990000
