18
Properties=species:S:1:pos:R:3 gdb_16531=T pbc="F F F"
C        0.14020000       1.60060000       0.09730000
C        0.08400000       0.08240000       0.01610000
C        1.06490000      -0.67390000      -0.95640000
O        2.08220000       0.07320000      -1.57670000
C        1.47390000      -1.64080000       0.21210000
C        2.68980000      -1.16610000       1.00370000
O        1.89280000      -0.17790000       1.70690000
C        0.66010000      -0.74090000       1.18520000
H        1.11700000       1.94040000       0.45400000
H       -0.05240000       2.05520000      -0.87920000
H       -0.60800000       1.97950000       0.80130000
H       -0.94100000      -0.24850000      -0.18890000
H        0.55060000      -1.19250000      -1.76890000
H        2.44170000       0.69050000      -0.93090000
H        1.32040000      -2.70780000       0.05960000
H        3.09350000      -1.91490000       1.69730000
H        3.51680000      -0.72020000       0.43900000
H       -0.00140000      -1.09200000       1.98230000
