17
Properties=species:S:1:pos:R:3 gdb_21211=T pbc="F F F"
C        0.02620000       1.43320000      -0.05320000
N        0.16730000      -0.00930000       0.06990000
C        0.64890000      -0.71140000      -1.02680000
N        1.21150000      -0.09290000      -2.06200000
N        1.60740000      -1.10860000      -2.87240000
C        1.29470000      -2.32820000      -2.37800000
C        0.66560000      -2.13030000      -1.16790000
C        0.13420000      -3.14400000      -0.20500000
H        1.00570000       1.87600000      -0.25010000
H       -0.64270000       1.73980000      -0.87130000
H       -0.35470000       1.83310000       0.88990000
H       -0.62820000      -0.45780000       0.50060000
H        2.07510000      -0.88800000      -3.73270000
H        1.54140000      -3.23720000      -2.90540000
H        0.56900000      -3.01740000       0.79400000
H       -0.95610000      -3.07660000      -0.08930000
H        0.35920000      -4.16120000      -0.53730000
