18
Properties=species:S:1:pos:R:3 gdb_50166=T pbc="F F F"
O       -0.64010000       0.61320000       0.50300000
C        0.11950000       0.99090000      -0.35230000
C        1.26560000       1.95440000      -0.18270000
C        1.22570000       3.32790000      -0.99330000
C        1.01260000       3.94320000       0.40400000
C        1.45650000       4.75170000       1.65730000
C        0.71760000       3.41760000       2.11970000
C       -0.37980000       3.73190000       1.09580000
N        1.60150000       2.73280000       1.06770000
H        0.06560000       0.58110000      -1.39040000
H        2.14680000       1.35260000      -0.45060000
H        2.19110000       3.54660000      -1.45250000
H        0.42230000       3.47010000      -1.71890000
H        2.53090000       4.77620000       1.83680000
H        0.95040000       5.69060000       1.89250000
H        0.62270000       3.04540000       3.14160000
H       -0.98330000       4.62680000       1.27180000
H       -0.99130000       2.89540000       0.77060000
