22
Properties=species:S:1:pos:R:3 gdb_100472=T pbc="F F F"
C       -0.07960000       1.54890000      -0.07500000
C       -0.02500000       0.02140000       0.01410000
C        0.73450000      -0.51400000       1.25440000
C        0.05120000      -0.13370000       2.58420000
C        0.90200000      -1.96450000       1.15480000
C        1.01800000      -3.16190000       1.06210000
C        1.14310000      -4.58990000       0.97040000
C        2.49610000      -5.22320000       0.94510000
N        1.64460000      -5.37220000       2.12950000
H        0.92680000       1.98300000      -0.06330000
H       -0.56370000       1.86210000      -1.00500000
H       -0.64330000       1.99150000       0.75160000
H       -1.04050000      -0.39300000       0.02100000
H        0.46280000      -0.37790000      -0.88160000
H        1.73530000      -0.05670000       1.24810000
H       -0.96660000      -0.53460000       2.62120000
H        0.60490000      -0.54180000       3.43370000
H        0.00040000       0.95210000       2.70230000
H        0.33990000      -5.09470000       0.43920000
H        2.64530000      -6.13260000       0.36970000
H        3.35530000      -4.56090000       0.99230000
H        1.94820000      -4.72110000       2.84990000
