14
Properties=species:S:1:pos:R:3 gdb_12291=T pbc="F F F"
N       -0.03330000       1.22420000       0.51540000
C        0.02460000       0.04690000       0.02770000
N        1.17760000      -0.67320000      -0.24060000
C        1.21520000      -1.96040000      -0.77460000
C        0.12020000      -2.65000000      -1.09060000
C       -1.24780000      -2.07550000      -0.88850000
C       -1.29560000      -0.66400000      -0.30320000
O       -2.34450000      -0.11080000      -0.10150000
H        0.90040000       1.60190000       0.69750000
H        2.05360000      -0.22130000      -0.02920000
H        2.21570000      -2.35320000      -0.91090000
H        0.21600000      -3.64690000      -1.50230000
H       -1.81380000      -2.04000000      -1.83020000
H       -1.85680000      -2.70670000      -0.22580000
