19
Properties=species:S:1:pos:R:3 gdb_49733=T pbc="F F F"
O        0.20910000      -0.03900000       0.88540000
C        0.14070000       0.96820000       0.21940000
C        1.25730000       1.92010000       0.06800000
C        1.47480000       2.78130000      -1.19310000
C        0.49980000       2.79850000      -2.37170000
C       -0.45750000       3.99180000      -2.23790000
C       -1.11980000       3.99060000      -0.86550000
O       -0.18740000       4.05730000       0.21470000
C        1.05220000       3.44800000       0.06930000
H       -0.79990000       1.22120000      -0.31450000
H        2.15780000       1.57890000       0.56860000
H        2.52090000       2.88780000      -1.46120000
H        1.06870000       2.87360000      -3.30220000
H       -0.07210000       1.86790000      -2.44050000
H        0.09580000       4.92920000      -2.37050000
H       -1.23510000       3.95780000      -3.00800000
H       -1.76700000       4.86300000      -0.73720000
H       -1.75140000       3.09470000      -0.75660000
H        1.79100000       3.99350000       0.64780000
