16
Properties=species:S:1:pos:R:3 gdb_78414=T pbc="F F F"
O       -0.01440000       1.28580000      -0.10960000
C       -0.02390000      -0.11000000      -0.03540000
C       -0.46960000      -0.69150000       1.28660000
C       -1.40290000      -0.67050000       0.06200000
C       -1.41990000      -2.22070000       0.03280000
C       -0.48990000      -2.24190000       1.27410000
N        0.48930000      -2.97220000       0.46160000
C       -0.25540000      -2.93740000      -0.71090000
O       -0.02060000      -3.31530000      -1.82510000
H        0.78970000       1.60070000       0.31640000
H        0.73800000      -0.60620000      -0.63660000
H       -0.50450000      -0.07220000       2.17460000
H       -2.26130000      -0.04030000      -0.12840000
H       -2.39690000      -2.69830000       0.03360000
H       -0.77580000      -2.72740000       2.20720000
H        1.48180000      -3.12170000       0.58080000
