19
Properties=species:S:1:pos:R:3 gdb_90476=T pbc="F F F"
O        0.56190000       0.70030000      -0.75830000
C       -0.03320000      -0.26460000       0.08910000
C        0.51110000      -0.24700000       1.54630000
C       -0.66780000      -0.53810000       2.46150000
C       -1.93220000      -0.46450000       1.65750000
C       -1.57720000      -0.12540000       0.21830000
C       -1.51180000      -1.80180000       2.27350000
C       -1.09380000      -2.99670000       1.50680000
O       -1.37160000      -4.12510000       1.83980000
H        0.37920000       1.57230000      -0.39120000
H        0.21700000      -1.21400000      -0.39130000
H        1.35830000      -0.92680000       1.67660000
H        0.88320000       0.76150000       1.76750000
H       -0.62220000      -0.16640000       3.47910000
H       -2.83990000      -0.03730000       2.06880000
H       -1.85010000       0.92070000       0.02930000
H       -2.10750000      -0.72500000      -0.52740000
H       -2.08610000      -2.08370000       3.15070000
H       -0.49830000      -2.81820000       0.58710000
