19
Properties=species:S:1:pos:R:3 gdb_54630=T pbc="F F F"
C       -0.02840000       1.48870000       0.07250000
C        0.01760000      -0.03000000       0.04320000
O        1.07700000      -0.62850000       0.05180000
C       -1.28050000      -0.74670000      -0.00670000
C       -1.37880000      -2.08810000      -0.04140000
C       -2.78330000      -2.55280000      -0.01430000
C       -3.55350000      -2.16280000       1.24000000
C       -3.62180000      -1.27750000       0.02990000
C       -2.65710000      -0.09410000      -0.04440000
H        0.98790000       1.88340000       0.05960000
H       -0.58820000       1.87790000      -0.78550000
H       -0.54570000       1.84000000       0.97290000
H       -0.51940000      -2.74780000      -0.06050000
H       -3.08110000      -3.44440000      -0.55370000
H       -4.43650000      -2.74820000       1.47370000
H       -2.97960000      -1.84010000       2.10280000
H       -4.56310000      -1.21820000      -0.50320000
H       -2.81090000       0.61310000       0.78020000
H       -2.80100000       0.47770000      -0.97090000
