17
Properties=species:S:1:pos:R:3 gdb_50602=T pbc="F F F"
O       -0.71540000       1.24210000      -0.93680000
C       -0.06600000       1.24890000       0.07700000
C        1.34560000       1.81130000       0.20330000
C        1.84040000       2.55480000      -1.05630000
C        1.72080000       4.06650000      -0.72760000
C        1.56870000       4.09960000       0.76800000
C        1.37700000       2.88260000       1.29940000
C        1.18340000       2.56280000       2.66390000
C        1.02220000       2.23460000       3.81260000
H       -0.47450000       0.83440000       1.02460000
H        1.98520000       0.96250000       0.48310000
H        2.88350000       2.29490000      -1.25190000
H        1.24960000       2.26690000      -1.92740000
H        2.59290000       4.63720000      -1.06670000
H        0.84980000       4.52770000      -1.21290000
H        1.59470000       5.01500000       1.34770000
H        0.87760000       1.96590000       4.82970000
