22
Properties=species:S:1:pos:R:3 gdb_31693=T pbc="F F F"
C        0.10010000       1.51740000      -0.36890000
C       -0.01480000       0.08580000       0.18660000
C       -1.40690000      -0.46300000       0.16810000
C       -2.29490000      -0.72000000       1.18940000
C       -3.50650000      -1.22470000       0.62290000
C       -4.75190000      -1.62520000       1.36090000
C       -5.49330000      -0.43880000       2.00020000
C       -3.31300000      -1.25750000      -0.73900000
N       -2.04550000      -0.79430000      -1.00490000
H        1.13510000       1.87200000      -0.32790000
H       -0.22890000       1.56910000      -1.41230000
H       -0.52370000       2.20720000       0.20720000
H        0.66040000      -0.57360000      -0.37700000
H        0.34070000       0.06820000       1.22180000
H       -2.09370000      -0.56730000       2.24020000
H       -5.42840000      -2.14540000       0.67230000
H       -4.50180000      -2.35100000       2.14610000
H       -6.38650000      -0.77390000       2.53830000
H       -4.84980000       0.08960000       2.71090000
H       -5.80340000       0.28260000       1.23760000
H       -3.96840000      -1.57700000      -1.53420000
H       -1.63550000      -0.72930000      -1.92000000
