17
Properties=species:S:1:pos:R:3 gdb_74073=T pbc="F F F"
C       -0.05110000       1.51800000       0.03140000
C        0.11670000       0.02610000       0.01840000
N       -0.72770000      -0.86140000       0.86970000
C        0.75130000      -0.79600000       1.06590000
C        1.44620000      -1.92530000       0.36220000
N        2.16500000      -2.83390000       1.07330000
C        1.25470000      -1.84670000      -0.98200000
C        0.46070000      -0.66700000      -1.31260000
O        0.12320000      -0.24940000      -2.40130000
H        0.86070000       2.01560000      -0.31370000
H       -0.85790000       1.80650000      -0.64870000
H       -0.28520000       1.88760000       1.03530000
H       -1.16670000      -0.27370000       1.58170000
H        1.15740000      -0.38330000       1.98390000
H        1.97160000      -2.93100000       2.05680000
H        2.46490000      -3.67830000       0.61200000
H        1.58520000      -2.56410000      -1.72120000
