15
Properties=species:S:1:pos:R:3 gdb_124221=T pbc="F F F"
C       -0.20590000       1.43120000      -0.03250000
C        0.08060000      -0.03960000       0.05430000
N        0.59700000      -0.72820000       0.97220000
O       -0.32080000      -0.64640000      -1.12480000
C       -0.24760000      -1.99030000      -1.21370000
C        0.60650000      -2.80600000      -1.88210000
C        0.04380000      -4.08780000      -1.65180000
N       -1.04470000      -4.04000000      -0.92140000
O       -1.23680000      -2.68410000      -0.64200000
H        0.28870000       1.86050000      -0.90890000
H       -1.28100000       1.59580000      -0.15300000
H        0.13890000       1.94560000       0.86510000
H        0.84430000      -0.14850000       1.77070000
H        1.48910000      -2.53280000      -2.43290000
H        0.39590000      -5.05040000      -1.99580000
