18
Properties=species:S:1:pos:R:3 gdb_67718=T pbc="F F F"
C       -0.07320000       1.46860000       0.06950000
C       -0.05210000      -0.03550000       0.01510000
C       -1.20460000      -0.88450000      -0.35150000
C       -0.74440000      -2.13910000      -0.55530000
C       -0.80120000      -3.05790000       0.67410000
C        0.61000000      -2.37450000       0.94160000
C        0.75970000      -0.82310000       1.06220000
N        1.23600000      -0.67160000      -0.35700000
C        0.79140000      -2.09430000      -0.56360000
H        0.84950000       1.85820000       0.50680000
H       -0.16960000       1.88360000      -0.93870000
H       -0.91760000       1.82480000       0.66870000
H       -2.18810000      -0.66520000       0.05390000
H       -1.62270000      -2.89540000       1.37420000
H       -0.65070000      -4.13050000       0.50900000
H        1.35210000      -2.93280000       1.51620000
H        1.25740000      -0.30820000       1.87720000
H        1.37500000      -2.70240000      -1.25160000
