18
Properties=species:S:1:pos:R:3 gdb_23063=T pbc="F F F"
C        0.16220000       1.48950000       0.04070000
C        0.07740000      -0.01490000       0.05720000
N        0.01520000      -0.71840000       1.12570000
O       -0.00550000       0.09050000       2.27410000
C        0.02290000      -0.74740000      -1.22110000
C       -1.20530000      -1.52630000      -1.70180000
C        0.10450000      -2.22130000      -1.54920000
O        0.93190000      -1.99780000      -2.69370000
C        0.96780000      -0.57330000      -2.41190000
H        0.91660000       1.83710000       0.75130000
H        0.39860000       1.86450000      -0.95720000
H       -0.79200000       1.92660000       0.35590000
H       -0.00920000      -0.56350000       2.98080000
H       -1.92880000      -1.71060000      -0.91470000
H       -1.61030000      -1.35870000      -2.69660000
H        0.30340000      -3.08640000      -0.92900000
H        0.62210000       0.02950000      -3.26020000
H        1.97930000      -0.26530000      -2.12270000
