15
Properties=species:S:1:pos:R:3 gdb_51306=T pbc="F F F"
O        1.88990000       4.09870000       0.05530000
C        1.02040000       3.25630000       0.04310000
N        1.24260000       1.91010000      -0.04970000
C        2.47740000       1.29850000      -0.14400000
C        3.73660000       1.75460000      -0.17330000
C        4.67730000       0.58120000      -0.28900000
N        3.77600000      -0.55500000      -0.31850000
C        2.46310000      -0.19270000      -0.23530000
O        1.47300000      -0.90120000      -0.23380000
H       -0.05880000       3.48950000       0.10700000
H        0.46220000       1.26320000      -0.05390000
H        4.06080000       2.78100000      -0.12470000
H        5.28920000       0.63620000      -1.20070000
H        5.36960000       0.52670000       0.56340000
H        4.06640000      -1.51480000      -0.39010000
