15
Properties=species:S:1:pos:R:3 gdb_14902=T pbc="F F F"
C       -0.04650000      -1.20960000      -0.05220000
C        0.01750000      -0.01080000      -0.01510000
C        0.04590000       1.45070000       0.05730000
C       -0.72160000       1.96270000       1.29320000
C       -0.47860000       3.45860000       1.42760000
O        0.92610000       3.75550000       1.46790000
C        1.71980000       2.96170000       0.71270000
N        1.43520000       1.93420000       0.03190000
H       -0.08660000      -2.26980000      -0.09760000
H       -0.44910000       1.83690000      -0.84640000
H       -1.79210000       1.75660000       1.20460000
H       -0.35410000       1.44330000       2.18390000
H       -0.92030000       4.00510000       0.58430000
H       -0.89520000       3.86170000       2.35330000
H        2.74440000       3.32790000       0.74980000
