14
Properties=species:S:1:pos:R:3 gdb_3298=T pbc="F F F"
C       -0.04440000      -1.25890000      -0.12390000
C       -0.01920000      -0.05880000      -0.04580000
C        0.01210000       1.38600000       0.06920000
C       -0.24780000       2.03280000       1.46910000
C        1.15570000       2.61540000       1.35670000
C        2.15940000       1.56230000       1.12030000
N        1.38140000       2.04650000      -0.03710000
H       -0.06990000      -2.31740000      -0.20660000
H       -0.62380000       1.83180000      -0.69970000
H       -1.04220000       2.77960000       1.43120000
H       -0.43090000       1.35420000       2.30570000
H        1.42840000       3.63820000       1.59460000
H        3.20120000       1.86220000       1.06790000
H        1.99230000       0.55050000       1.48150000
