12
Properties=species:S:1:pos:R:3 gdb_20691=T pbc="F F F"
C        0.01650000       1.50230000      -0.00060000
C       -0.05960000       0.00880000      -0.00020000
N       -1.14010000      -0.63080000      -0.26240000
C       -1.08970000      -2.02800000      -0.23160000
O       -2.04250000      -2.73580000      -0.46090000
C        0.23730000      -2.59590000       0.10800000
N        1.29440000      -1.92100000       0.36380000
O        1.14450000      -0.52970000       0.30820000
H        0.76060000       1.84080000      -0.72790000
H       -0.96210000       1.90880000      -0.25070000
H        0.33270000       1.86300000       0.98280000
H        0.35260000      -3.67540000       0.15080000
