21
Properties=species:S:1:pos:R:3 gdb_94007=T pbc="F F F"
C        0.59150000       1.64140000      -0.03050000
C        0.12080000       0.18730000       0.04180000
O        0.51870000      -0.55170000      -1.11020000
C        1.81150000      -1.09680000      -0.88020000
C        1.99120000      -1.25830000       0.65020000
C        3.24250000      -0.57250000       1.15680000
O        3.98340000      -1.03280000       1.98670000
C        0.66360000      -0.64820000       1.22360000
C        0.76900000       0.05480000       2.57710000
H        1.68280000       1.72750000      -0.00070000
H        0.24610000       2.08570000      -0.96790000
H        0.18420000       2.22930000       0.79760000
H       -0.97520000       0.17640000       0.04390000
H        1.87060000      -2.05160000      -1.40950000
H        2.59120000      -0.43780000      -1.29590000
H        2.07250000      -2.30500000       0.95040000
H        3.45280000       0.42330000       0.69850000
H       -0.02140000      -1.49520000       1.33500000
H        1.42460000       0.92970000       2.54430000
H       -0.21750000       0.39160000       2.91200000
H        1.16610000      -0.62390000       3.33760000
