18
Properties=species:S:1:pos:R:3 gdb_78835=T pbc="F F F"
C       -0.24680000       1.35570000       0.02620000
C        0.05180000      -0.13880000      -0.01470000
C        0.98540000      -0.53790000      -1.16040000
C        2.19100000      -0.39030000      -0.31420000
C        1.22370000      -0.57040000       0.91810000
C        1.37190000      -2.08590000       0.61130000
C        0.19040000      -2.99630000       0.81210000
O       -0.52780000      -3.40390000      -0.06440000
N        1.79440000      -1.75150000      -0.78240000
H        0.67210000       1.94740000      -0.04750000
H       -0.90010000       1.64770000      -0.80270000
H       -0.75270000       1.62740000       0.95860000
H       -0.87450000      -0.71490000       0.08340000
H        0.86500000      -0.36950000      -2.22250000
H        3.17370000       0.03750000      -0.45760000
H        1.32570000      -0.16250000       1.92220000
H        2.23530000      -2.50940000       1.13990000
H        0.01060000      -3.26510000       1.88140000
