14
Properties=species:S:1:pos:R:3 gdb_16922=T pbc="F F F"
O       -0.01420000       0.01260000      -0.00810000
C        0.01580000       1.20740000      -0.00230000
O       -1.10010000       1.99620000       0.00900000
C       -0.61540000       3.38820000       0.04420000
C        0.60470000       3.29040000      -0.88570000
C        1.22300000       2.17060000      -0.00250000
C        1.16350000       2.84600000       1.37030000
C        0.05840000       3.59510000       1.39740000
H       -1.44870000       4.02980000      -0.23010000
H        0.33970000       2.97040000      -1.89730000
H        1.21290000       4.19530000      -0.91080000
H        2.15640000       1.69930000      -0.29720000
H        1.86430000       2.65160000       2.17050000
H       -0.35400000       4.16100000       2.22070000
