17
Properties=species:S:1:pos:R:3 gdb_80810=T pbc="F F F"
C        0.04320000       1.51740000      -0.04270000
N        0.04310000       0.05230000       0.01750000
C       -1.11320000      -0.72020000       0.63010000
C       -0.12950000      -1.92420000       0.67950000
C        0.62940000      -0.67720000       1.21580000
C        2.00540000      -0.55810000       1.62170000
N        3.09600000      -0.44240000       1.98960000
C       -0.67030000      -0.39920000       2.08290000
O       -0.95860000       0.86280000       2.58990000
H        1.06600000       1.83610000      -0.26910000
H       -0.58250000       1.80520000      -0.89410000
H       -0.30640000       2.03980000       0.84960000
H       -2.11660000      -0.68880000       0.20770000
H       -0.33550000      -2.72810000       1.38650000
H        0.21660000      -2.26530000      -0.29280000
H       -0.88120000      -1.18370000       2.82300000
H       -0.56160000       0.94220000       3.46350000
