11
Properties=species:S:1:pos:R:3 gdb_27519=T pbc="F F F"
O        0.02770000       1.28140000       0.14490000
C       -0.09230000      -0.02380000      -0.00680000
N       -1.20010000      -0.61540000       0.16190000
C       -1.23840000      -1.97420000      -0.01570000
N       -2.26660000      -2.68020000       0.11900000
O       -0.00670000      -2.61720000      -0.38170000
C        1.14710000      -1.97190000      -0.55350000
O        2.17090000      -2.48340000      -0.85470000
O        1.09560000      -0.59590000      -0.35320000
H        0.94470000       1.53790000      -0.02670000
H       -2.06340000      -3.66190000      -0.06160000
