23
Properties=species:S:1:pos:R:3 gdb_100538=T pbc="F F F"
C        0.05230000       2.83570000      -2.42700000
C        0.64340000       1.71300000      -1.56770000
N        1.17520000       0.58460000      -2.33230000
C        2.48140000       0.77370000      -2.94250000
C        0.26020000      -0.35960000      -2.76180000
O       -0.94640000      -0.17650000      -2.67450000
N        0.79310000      -1.52480000      -3.31570000
C       -0.16490000      -2.40240000      -3.97050000
C        1.89720000      -2.22950000      -2.67740000
H        0.78960000       3.25000000      -3.12280000
H       -0.79500000       2.45220000      -2.99850000
H       -0.29630000       3.65450000      -1.78910000
H        1.45910000       2.09650000      -0.94260000
H       -0.13000000       1.32330000      -0.90290000
H        2.60250000       0.09540000      -3.78700000
H        2.57700000       1.79850000      -3.32090000
H        3.30180000       0.60320000      -2.23200000
H        0.36400000      -3.02940000      -4.69630000
H       -0.68320000      -3.05930000      -3.25640000
H       -0.91570000      -1.80400000      -4.48430000
H        2.40520000      -1.58380000      -1.96310000
H        1.52680000      -3.10850000      -2.12890000
H        2.62770000      -2.57910000      -3.41750000
