23
Properties=species:S:1:pos:R:3 gdb_121742=T pbc="F F F"
C        0.15770000       1.42180000       0.00760000
C       -0.01590000      -0.09960000       0.00080000
C       -1.48110000      -0.50310000       0.01280000
O       -1.54360000      -1.94140000       0.00520000
C       -2.78100000      -2.47840000       0.01520000
O       -3.79300000      -1.82250000       0.02970000
C       -2.71040000      -3.99230000       0.00650000
C       -4.08630000      -4.65850000       0.01470000
C       -3.99650000      -6.18630000       0.00630000
H        1.21680000       1.69410000      -0.00120000
H       -0.31130000       1.88120000      -0.86920000
H       -0.29420000       1.87130000       0.89850000
H        0.46400000      -0.53140000      -0.88510000
H        0.48110000      -0.54130000       0.87210000
H       -1.99930000      -0.12670000       0.90180000
H       -2.01650000      -0.11660000      -0.86160000
H       -2.12680000      -4.29610000      -0.87190000
H       -2.11220000      -4.30520000       0.87180000
H       -4.64310000      -4.31710000       0.89380000
H       -4.65770000      -4.30850000      -0.85170000
H       -4.99220000      -6.63980000       0.01230000
H       -3.47050000      -6.55060000      -0.88340000
H       -3.45580000      -6.55940000       0.88360000
