18
Properties=species:S:1:pos:R:3 gdb_98780=T pbc="F F F"
O        0.01380000       1.35900000      -0.46230000
C       -0.11050000      -0.02960000      -0.45870000
C       -1.30880000      -0.48480000       0.36110000
O       -1.96530000       0.34600000       0.95830000
C       -1.65120000      -1.95340000       0.36080000
C       -2.66270000      -2.50170000       1.39890000
N       -3.59310000      -3.01510000       0.32760000
C       -4.01630000      -1.82360000      -0.43020000
C       -2.68070000      -2.38900000      -0.70490000
H       -0.68850000       1.67550000       0.12880000
H       -0.21630000      -0.42490000      -1.48290000
H        0.78540000      -0.51800000      -0.03540000
H       -0.74180000      -2.55590000       0.29760000
H       -2.27240000      -3.33220000       1.98840000
H       -3.11400000      -1.75560000       2.05730000
H       -4.79870000      -2.04000000      -1.15050000
H       -4.10880000      -0.87070000       0.08420000
H       -2.42620000      -2.89190000      -1.63210000
