20
Properties=species:S:1:pos:R:3 gdb_13014=T pbc="F F F"
C       -0.31050000       1.41070000       0.02570000
C        0.05010000      -0.05480000       0.02130000
C       -0.71380000      -1.02710000       0.89930000
C        0.74920000      -0.75790000       1.16230000
C        1.74970000      -1.75550000       0.58690000
C        1.28860000      -1.96700000      -0.87050000
C        0.60450000      -0.64040000      -1.27590000
O       -0.34490000      -0.76460000      -2.32380000
H        0.55940000       2.03340000      -0.21550000
H       -1.08300000       1.62010000      -0.72250000
H       -0.69030000       1.72870000       1.00160000
H       -1.42930000      -0.59220000       1.58930000
H       -1.01410000      -2.00020000       0.52060000
H        1.01330000      -0.21830000       2.06620000
H        2.75370000      -1.31540000       0.61020000
H        1.79810000      -2.69280000       1.15240000
H        2.10510000      -2.23200000      -1.54610000
H        0.55490000      -2.77900000      -0.93540000
H        1.35430000       0.05610000      -1.67230000
H       -1.08610000      -1.27410000      -1.97720000
