22
Properties=species:S:1:pos:R:3 gdb_114037=T pbc="F F F"
C       -0.03200000       1.62950000       0.14530000
C        0.08470000       0.12030000       0.17900000
N        1.20310000      -0.73090000      -0.32150000
C        2.54410000      -0.15450000       0.07970000
C        3.05810000       0.99470000      -0.77330000
O        3.09590000       0.60530000      -2.13650000
C        2.13870000      -0.02640000       1.56690000
C        0.81510000      -0.69660000       1.16740000
C        0.23490000      -1.88220000       1.88150000
H        0.76740000       2.14560000       0.67850000
H       -0.04850000       2.00110000      -0.88480000
H       -0.97940000       1.91960000       0.61330000
H       -0.83890000      -0.35490000      -0.15150000
H        3.25140000      -0.98110000      -0.04210000
H        2.46060000       1.90600000      -0.63860000
H        4.08720000       1.23700000      -0.48100000
H        2.28090000       0.11550000      -2.30260000
H        2.75310000      -0.63090000       2.23660000
H        2.05710000       0.97960000       1.98910000
H       -0.19560000      -1.58160000       2.84440000
H       -0.55590000      -2.34700000       1.28600000
H        1.00100000      -2.63960000       2.08040000
