15
Properties=species:S:1:pos:R:3 gdb_43284=T pbc="F F F"
O       -0.05870000      -0.04940000       0.06410000
C       -0.06440000       1.15260000      -0.00530000
C       -1.27390000       2.04340000      -0.17100000
C       -0.96430000       3.33850000       0.00500000
C        0.51070000       3.46800000       0.20270000
C        1.47590000       3.90840000       1.32380000
C        2.10430000       2.46660000       1.27830000
C        1.09680000       2.11860000       0.16450000
O        1.28460000       3.03730000      -0.92200000
H       -2.24450000       1.63430000      -0.42300000
H       -1.65520000       4.17200000      -0.04580000
H        2.12550000       4.74850000       1.07160000
H        0.96510000       4.11120000       2.26680000
H        3.15290000       2.38620000       0.98810000
H        1.93410000       1.90300000       2.19700000
