19
Properties=species:S:1:pos:R:3 gdb_37442=T pbc="F F F"
C       -0.05670000       1.51710000      -0.10130000
C        1.29360000       0.84600000       0.02410000
C        0.02250000       0.02210000       0.01360000
C       -0.13430000      -0.63620000       1.38230000
C        1.09330000      -1.53580000       1.60290000
O        2.28820000      -0.74970000       1.51440000
C        1.98030000       0.64890000       1.36980000
C        1.07360000       1.04500000       2.53230000
O       -0.17310000       0.34210000       2.42160000
H       -0.46850000       2.07900000       0.72730000
H       -0.29630000       1.91940000      -1.07940000
H        1.94450000       0.83860000      -0.84310000
H       -0.21970000      -0.59460000      -0.84610000
H       -1.06010000      -1.20990000       1.47170000
H        1.03980000      -2.00270000       2.59540000
H        1.13220000      -2.33140000       0.84680000
H        2.93910000       1.16840000       1.43590000
H        1.56200000       0.77810000       3.47850000
H        0.87080000       2.12290000       2.53920000
