15
Properties=species:S:1:pos:R:3 gdb_31355=T pbc="F F F"
C       -0.09640000       1.50730000       0.16970000
C        0.01610000      -0.00200000      -0.03180000
C        0.73590000      -0.39400000      -1.28550000
N        1.22070000       0.42300000      -2.12900000
C        1.88240000      -0.07850000      -3.28060000
O        2.35710000       0.65960000      -4.09850000
N        1.96400000      -1.49450000      -3.43260000
C        1.44360000      -2.20910000      -2.52700000
O        0.80670000      -1.76340000      -1.41120000
H        0.89120000       1.97120000       0.21940000
H       -0.63570000       1.97450000      -0.65710000
H       -0.62990000       1.71960000       1.09980000
H        0.53790000      -0.48010000       0.80750000
H       -0.97350000      -0.47660000      -0.06130000
H        1.45590000      -3.29580000      -2.55390000
