16
Properties=species:S:1:pos:R:3 gdb_12750=T pbc="F F F"
C       -0.06960000       1.52840000       0.00650000
C        0.10800000       0.04360000       0.02980000
N       -0.77970000      -0.85790000       0.79320000
C        0.68540000      -0.90260000       1.02660000
C        1.24110000      -1.82340000      -0.06110000
C        0.66640000      -0.81670000      -1.13270000
C       -0.27990000      -1.31090000      -2.12170000
N       -1.02440000      -1.69270000      -2.91940000
H        0.81950000       2.02840000      -0.39210000
H       -0.92370000       1.81140000      -0.61920000
H       -0.24860000       1.91430000       1.01560000
H       -1.19500000      -0.30250000       1.54110000
H        1.09970000      -0.70920000       2.00830000
H        2.33020000      -1.87280000      -0.09920000
H        0.81570000      -2.82780000      -0.07920000
H        1.48020000      -0.29770000      -1.64600000
