21
Properties=species:S:1:pos:R:3 gdb_109689=T pbc="F F F"
C        0.09140000       1.13700000      -0.53330000
O       -0.10790000       0.00840000       0.30940000
C       -1.36420000      -0.58810000       0.19540000
C       -2.48580000       0.13830000       0.90510000
C       -1.65900000      -1.38130000      -1.06140000
O       -0.72320000      -1.40140000      -2.09280000
C       -1.33800000      -2.11080000       0.23490000
C       -0.01870000      -2.85030000       0.30780000
O        0.18240000      -3.72980000      -0.81540000
H        1.11620000       1.47350000      -0.35860000
H       -0.03140000       0.86760000      -1.58630000
H       -0.59100000       1.96040000      -0.28120000
H       -2.63540000       1.14230000       0.49390000
H       -3.42950000      -0.40480000       0.79930000
H       -2.26350000       0.23600000       1.97290000
H       -2.69530000      -1.39770000      -1.40150000
H       -0.28660000      -2.26690000      -2.06090000
H       -2.17300000      -2.58710000       0.74260000
H        0.81050000      -2.14400000       0.27210000
H        0.05620000      -3.41480000       1.24600000
H       -0.53080000      -4.37710000      -0.81240000
