16
Properties=species:S:1:pos:R:3 gdb_77208=T pbc="F F F"
O       -0.02220000       1.31440000       0.02950000
C        0.08320000      -0.08190000      -0.02080000
C       -1.35950000      -0.67240000      -0.12560000
C       -1.17160000      -0.75490000      -1.67880000
C        0.36740000      -0.63680000      -1.46570000
C        1.14280000       0.22740000      -2.33260000
N        1.76480000       0.96020000      -2.97640000
C       -1.52410000      -1.95660000       0.52580000
C       -1.63970000      -3.03030000       1.05460000
H        0.82680000       1.70160000      -0.21620000
H        0.72230000      -0.48570000       0.77240000
H       -2.11640000       0.04040000       0.20960000
H       -1.52260000      -1.66080000      -2.17100000
H       -1.58110000       0.12460000      -2.17510000
H        0.83230000      -1.62440000      -1.40940000
H       -1.75460000      -3.97270000       1.53070000
