21
Properties=species:S:1:pos:R:3 gdb_61765=T pbc="F F F"
C       -0.17330000       1.61050000      -0.01910000
C       -0.01020000       0.09460000      -0.01730000
O        0.67690000      -0.29620000      -1.22550000
C       -0.03840000      -0.83780000      -2.22750000
O        0.44730000      -1.15880000      -3.27040000
C        0.77200000      -0.48900000       1.19230000
C        0.74130000      -2.01810000       1.14030000
C        2.21400000       0.02460000       1.25270000
O        0.05150000      -0.13100000       2.37640000
H        0.79170000       2.11470000      -0.11580000
H       -0.79780000       1.92000000      -0.86200000
H       -0.66360000       1.94140000       0.89990000
H       -1.00290000      -0.37430000      -0.00550000
H       -1.11070000      -0.95410000      -1.97450000
H        1.23300000      -2.39220000       0.23980000
H        1.25210000      -2.42650000       2.01580000
H       -0.29230000      -2.37770000       1.15500000
H        2.24810000       1.11140000       1.38960000
H        2.73650000      -0.43840000       2.09430000
H        2.75090000      -0.21160000       0.33100000
H        0.33240000       0.74850000       2.64750000
