17
Properties=species:S:1:pos:R:3 gdb_128580=T pbc="F F F"
C        0.01980000       1.40490000      -0.04350000
O       -0.00100000      -0.01270000      -0.00250000
C        0.58390000      -0.66380000      -1.02310000
C        0.69550000      -2.02620000      -1.19790000
C        1.39100000      -2.14060000      -2.42470000
O        1.71920000      -3.31650000      -2.98560000
C        2.41930000      -3.23630000      -4.22240000
N        1.69210000      -0.97380000      -2.97530000
N        1.17870000      -0.06370000      -2.08500000
H        1.04760000       1.79120000      -0.03940000
H       -0.51220000       1.78850000      -0.92420000
H       -0.49190000       1.74510000       0.85700000
H        0.33530000      -2.80500000      -0.54990000
H        1.82290000      -2.71610000      -4.97950000
H        3.36830000      -2.70260000      -4.10390000
H        2.60290000      -4.26670000      -4.53050000
H        1.28580000       0.91430000      -2.27860000
