19
Properties=species:S:1:pos:R:3 gdb_73435=T pbc="F F F"
O       -0.13220000       1.32240000      -0.10750000
C        0.01010000      -0.07480000      -0.03760000
C        1.21820000      -0.59980000      -0.77790000
C        1.33060000      -2.14270000      -0.73430000
C        0.18170000      -2.78750000       0.01190000
C       -0.43480000      -2.22570000       1.26850000
C       -1.24190000      -2.28830000      -0.02270000
C       -1.33440000      -0.74110000      -0.04190000
C       -0.51980000      -0.67670000       1.24740000
H        0.60040000       1.71380000       0.38190000
H        1.16070000      -0.23900000      -1.81050000
H        2.11590000      -0.14020000      -0.34320000
H        1.36370000      -2.54560000      -1.75280000
H        2.27210000      -2.44100000      -0.25920000
H        0.23120000      -3.87450000       0.03300000
H       -0.55580000      -2.81300000       2.17020000
H       -2.07750000      -2.93170000      -0.26760000
H       -2.22460000      -0.18340000      -0.30020000
H       -0.70120000      -0.06110000       2.11910000
