23
Properties=species:S:1:pos:R:3 gdb_70600=T pbc="F F F"
C       -0.57300000       1.37330000       0.11560000
C       -0.04120000      -0.03830000       0.01500000
C       -0.20360000      -0.96500000       1.21750000
C        1.16560000      -0.51600000       0.77060000
O        1.92970000      -1.39670000      -0.01310000
C        1.08460000      -1.86210000      -1.06220000
C        0.05360000      -0.73760000      -1.35850000
C       -1.27980000      -1.31310000      -1.84960000
C        0.63780000       0.22560000      -2.40850000
H        0.00350000       2.07800000      -0.49160000
H       -1.61990000       1.43120000      -0.20660000
H       -0.53480000       1.72550000       1.15110000
H       -0.60130000      -0.51510000       2.12140000
H       -0.49050000      -2.00150000       1.07970000
H        1.78620000       0.11560000       1.39610000
H        1.71790000      -2.09590000      -1.92280000
H        0.57330000      -2.78790000      -0.76080000
H       -1.72610000      -1.97910000      -1.10470000
H       -1.99960000      -0.51500000      -2.06080000
H       -1.14490000      -1.88410000      -2.77540000
H        0.79060000      -0.29810000      -3.35830000
H       -0.02980000       1.07000000      -2.60360000
H        1.60500000       0.62160000      -2.08310000
