15
Properties=species:S:1:pos:R:3 gdb_24490=T pbc="F F F"
C       -0.05830000       1.49820000       0.01050000
C        1.40440000       1.88240000      -0.00100000
C        2.20070000       0.79740000      -0.01460000
C        1.36740000      -0.40320000      -0.01370000
N        1.74340000      -1.67810000      -0.02440000
C        0.72170000      -2.54970000      -0.01980000
C       -0.61340000      -2.15650000      -0.00510000
N       -0.99190000      -0.86370000       0.00580000
C        0.01060000      -0.00580000       0.00130000
H       -0.58470000       1.87990000       0.89470000
H       -0.60110000       1.88990000      -0.85940000
H        1.73750000       2.91230000       0.00170000
H        3.28250000       0.78200000      -0.02480000
H        0.98000000      -3.60530000      -0.02820000
H       -1.40640000      -2.89870000      -0.00190000
