21
Properties=species:S:1:pos:R:3 gdb_59390=T pbc="F F F"
C        0.02610000       1.44220000      -0.22440000
C        0.05550000      -0.05450000       0.12230000
C        0.74570000      -0.30700000       1.47110000
C       -1.35820000      -0.61500000       0.11910000
C       -2.03420000      -1.08970000      -1.13810000
C       -1.64100000      -2.10110000      -0.05550000
N       -0.55980000      -3.04550000      -0.21030000
C       -2.73270000      -2.63680000       0.73070000
N       -3.62190000      -3.05700000       1.33970000
H        1.04000000       1.85280000      -0.25870000
H       -0.44700000       1.61870000      -1.19530000
H       -0.53560000       2.00470000       0.52990000
H        0.63510000      -0.55620000      -0.66580000
H        0.79290000      -1.37530000       1.70110000
H        1.76540000       0.09110000       1.46900000
H        0.19810000       0.18480000       2.28310000
H       -2.00970000      -0.12820000       0.84100000
H       -3.08450000      -0.87070000      -1.29280000
H       -1.43670000      -1.13340000      -2.04370000
H       -0.79570000      -3.74920000      -0.90310000
H        0.28590000      -2.58220000      -0.51820000
