19
Properties=species:S:1:pos:R:3 gdb_34531=T pbc="F F F"
C        0.01990000      -1.22850000       0.09650000
C       -0.03030000      -0.02500000       0.03910000
C       -0.02570000       1.39370000      -0.03500000
C       -1.16390000       2.10970000       0.04710000
C       -1.19610000       3.58500000       0.00520000
C       -0.34020000       4.38460000       0.98740000
C        0.06290000       4.29710000      -0.45420000
C        1.21430000       3.43050000      -0.92650000
C        1.32090000       2.08340000      -0.18670000
H        0.04530000      -2.28840000       0.14930000
H       -2.11020000       1.58840000       0.15430000
H       -2.15220000       4.02460000      -0.25800000
H       -0.74380000       5.32370000       1.35030000
H        0.21370000       3.82060000       1.72930000
H       -0.09420000       5.19490000      -1.04520000
H        1.07170000       3.23280000      -1.99640000
H        2.16340000       3.97070000      -0.83220000
H        1.76460000       2.23250000       0.80620000
H        2.01070000       1.42390000      -0.72140000
