15
Properties=species:S:1:pos:R:3 gdb_71216=T pbc="F F F"
O       -0.01070000       1.39900000       0.02400000
C       -0.03580000       0.02680000       0.07380000
C        0.45740000      -0.81800000       1.29640000
C       -0.39770000      -1.93570000       0.66200000
C       -0.04450000      -2.06310000      -0.87130000
O       -1.37500000      -1.57400000      -1.25180000
C       -1.33830000      -0.88960000       0.02630000
C        0.69250000      -0.73020000      -1.03750000
O        1.51420000      -0.31120000      -1.80310000
H        0.58330000       1.64570000      -0.70030000
H        1.53500000      -0.95700000       1.41990000
H        0.01430000      -0.47120000       2.23310000
H       -0.73570000      -2.82300000       1.18990000
H        0.27780000      -2.96540000      -1.38500000
H       -2.29220000      -0.52340000       0.40060000
