17
Properties=species:S:1:pos:R:3 gdb_45193=T pbc="F F F"
N        0.04290000       1.23780000       0.31580000
C        0.00820000       0.02140000       0.03240000
O        1.04820000      -0.87010000      -0.32530000
C        0.04120000      -1.79260000      -0.90880000
C       -0.33350000      -3.27060000      -0.65500000
C       -1.67710000      -2.95040000       0.12210000
C       -1.10000000      -2.02350000       1.20310000
C       -0.99620000      -1.11080000      -0.04690000
N       -2.31350000      -1.68050000      -0.45460000
H        0.99500000       1.60550000       0.27370000
H       -0.02460000      -1.53930000      -1.97060000
H       -0.46870000      -3.80860000      -1.59640000
H        0.35070000      -3.84340000      -0.02560000
H       -2.35830000      -3.77370000       0.33500000
H       -1.85310000      -1.63970000       1.88960000
H       -0.18070000      -2.31310000       1.71130000
H       -2.42470000      -1.69690000      -1.46940000
