19
Properties=species:S:1:pos:R:3 gdb_47054=T pbc="F F F"
O        0.00270000      -0.08070000      -0.30010000
C       -0.00390000       1.12570000      -0.14390000
C       -1.29950000       1.93430000      -0.11590000
N       -1.14880000       3.16870000       0.64660000
C       -0.13710000       4.04070000       0.07360000
C        0.42760000       5.01980000       1.13710000
C        1.50220000       3.95600000       1.49830000
C        1.21890000       3.29370000       0.11660000
N        1.14130000       1.85940000      -0.01720000
H       -1.60240000       2.09310000      -1.16870000
H       -2.05740000       1.29830000       0.34620000
H       -2.03620000       3.65320000       0.72480000
H       -0.42020000       4.46240000      -0.90500000
H        0.86030000       5.91210000       0.67730000
H       -0.26510000       5.32110000       1.92480000
H        2.52000000       4.30140000       1.69000000
H        1.17150000       3.31000000       2.31250000
H        1.89740000       3.70110000      -0.64140000
H        1.99300000       1.31620000      -0.03890000
