16
Properties=species:S:1:pos:R:3 gdb_77129=T pbc="F F F"
C        0.08240000       1.08830000      -1.04180000
C       -0.03530000       0.10120000       0.09080000
O        0.87150000      -0.13570000       0.86070000
C       -1.37390000      -0.61020000       0.27660000
O       -1.20260000      -2.05520000       0.20810000
C       -1.41730000      -2.21590000       1.57050000
N       -1.29900000      -3.22040000       2.30280000
C       -1.80200000      -0.75410000       1.78960000
O       -1.18210000      -0.01010000       2.77480000
H        1.07000000       1.54990000      -1.04240000
H       -0.09620000       0.58200000      -1.99780000
H       -0.69090000       1.86020000      -0.94620000
H       -2.13930000      -0.27880000      -0.42890000
H       -0.97690000      -4.03870000       1.78360000
H       -2.88120000      -0.62720000       1.90800000
H       -0.22890000      -0.15210000       2.68410000
