19
Properties=species:S:1:pos:R:3 gdb_22883=T pbc="F F F"
C        0.06350000       1.68860000       0.11660000
C        0.15190000       0.17010000      -0.01940000
N        0.99170000      -0.26400000      -1.15390000
C        0.42500000      -0.31090000      -2.48330000
C        1.86140000      -1.22880000      -0.70100000
C        1.83330000      -1.40980000       0.64090000
C        0.81700000      -0.52390000       1.17020000
N        0.44860000      -0.25110000       2.36720000
O        1.20920000      -0.98920000       3.30260000
H        1.06360000       2.12020000       0.20910000
H       -0.43560000       2.14070000      -0.74650000
H       -0.50310000       1.93500000       1.01780000
H       -0.85950000      -0.24390000      -0.15950000
H        0.07480000       0.68230000      -2.77980000
H        1.19440000      -0.62140000      -3.19570000
H       -0.42280000      -1.01140000      -2.56310000
H        2.49750000      -1.72920000      -1.42210000
H        2.48540000      -2.03540000       1.22590000
H        0.83470000      -0.69420000       4.13850000
