18
Properties=species:S:1:pos:R:3 gdb_55386=T pbc="F F F"
C        0.01270000       1.50860000      -0.04430000
C        0.00400000       0.01510000      -0.03820000
N       -0.12770000      -0.68490000      -1.09740000
C       -0.10470000      -2.10240000      -0.72890000
C        0.14590000      -2.15730000       0.80220000
N        0.15580000      -0.73140000       1.15330000
C        0.21510000      -0.23050000       2.44640000
N        0.35630000      -1.20460000       3.41960000
O        0.10820000       0.94890000       2.72500000
H        0.93160000       1.89720000       0.40090000
H       -0.07640000       1.84010000      -1.07920000
H       -0.80760000       1.90600000       0.55650000
H       -1.05720000      -2.56930000      -1.00360000
H        0.67780000      -2.62240000      -1.29070000
H       -0.64050000      -2.68600000       1.34940000
H        1.10790000      -2.62810000       1.04360000
H        0.81630000      -2.07330000       3.20060000
H        0.57300000      -0.81840000       4.32540000
