17
Properties=species:S:1:pos:R:3 gdb_74647=T pbc="F F F"
C       -0.04880000       1.52330000       0.01110000
C       -0.01870000       0.03560000      -0.04870000
C       -0.03840000      -0.82030000      -1.07600000
C        0.03520000      -2.19210000      -0.43690000
C       -0.80990000      -2.16330000       0.88020000
O        0.14800000      -3.02730000       1.57410000
C        0.98030000      -2.09240000       0.81040000
C        0.06600000      -0.87620000       1.17800000
O        0.19040000      -0.33560000       2.44620000
H        0.81900000       1.91350000       0.55620000
H       -0.05550000       1.96150000      -0.99040000
H       -0.93720000       1.89090000       0.54240000
H       -0.08810000      -0.60760000      -2.13540000
H        0.04810000      -3.10660000      -1.02460000
H       -1.87680000      -2.34610000       1.03510000
H        2.06630000      -2.18910000       0.88190000
H       -0.61780000       0.14000000       2.66470000
