16
Properties=species:S:1:pos:R:3 gdb_29335=T pbc="F F F"
C        0.01140000       1.49950000       0.05050000
C        0.01100000       0.01000000      -0.01370000
C       -0.05310000      -0.83900000      -1.11670000
C       -0.12450000      -0.44720000      -2.47020000
N       -0.17400000      -0.15690000      -3.59300000
C       -0.01710000      -2.19650000      -0.64110000
N       -0.13550000      -3.32740000      -1.45010000
C        0.07090000      -2.12880000       0.72800000
N        0.08570000      -0.78520000       1.08120000
H        0.92530000       1.88840000       0.51500000
H       -0.05210000       1.91170000      -0.95850000
H       -0.84080000       1.88340000       0.62380000
H        0.15180000      -3.16140000      -2.40580000
H        0.32960000      -4.14540000      -1.08180000
H        0.11350000      -2.90430000       1.47390000
H        0.14360000      -0.44650000       2.02590000
