19
Properties=species:S:1:pos:R:3 gdb_107493=T pbc="F F F"
O        0.12980000       1.35860000       0.25330000
C        0.01780000      -0.01920000      -0.05110000
C       -1.40460000      -0.50430000      -0.04910000
C       -1.92710000      -1.66050000      -0.86470000
C       -2.56100000      -0.31010000      -1.04420000
C       -3.54570000      -0.03480000       0.10630000
C       -2.37540000      -0.23580000       1.08430000
C       -2.30800000      -0.59660000       2.50120000
O       -2.06890000       0.75760000       2.06400000
H       -0.34970000       1.49500000       1.08090000
H        0.45740000      -0.16200000      -1.04490000
H        0.61320000      -0.63240000       0.64880000
H       -1.27100000      -1.98080000      -1.66880000
H       -2.47560000      -2.47270000      -0.39230000
H       -2.54670000       0.21310000      -1.99160000
H       -3.89250000       1.00060000       0.14210000
H       -4.40310000      -0.71010000       0.19210000
H       -3.22390000      -0.73140000       3.07410000
H       -1.43620000      -1.12120000       2.88950000
