17
Properties=species:S:1:pos:R:3 gdb_111386=T pbc="F F F"
O        0.12420000       1.35240000       0.09160000
C        0.03910000      -0.02910000      -0.21840000
C       -1.38010000      -0.55830000      -0.03720000
C       -1.60890000      -2.07520000      -0.12050000
N       -0.81930000      -2.67590000       0.98120000
C       -2.15980000      -2.12870000       1.25980000
C       -1.98960000      -0.60870000       1.43340000
C       -1.15190000      -0.13360000       2.52430000
N       -0.46750000       0.27760000       3.36150000
H        0.23110000       1.43210000       1.04570000
H        0.32470000      -0.13670000      -1.27170000
H        0.73680000      -0.62780000       0.37780000
H       -2.06740000      -0.00400000      -0.68030000
H       -1.87950000      -2.65430000      -0.99390000
H       -0.91150000      -3.68850000       0.91460000
H       -2.94610000      -2.73730000       1.68650000
H       -2.95110000      -0.09240000       1.46880000
