25
Properties=species:S:1:pos:R:3 gdb_102498=T pbc="F F F"
C        0.46170000       1.25340000      -0.26840000
O        0.05450000       0.21180000       0.59460000
C       -1.28480000      -0.25710000       0.38860000
C       -1.24060000      -1.33040000      -0.71230000
O       -0.27060000      -2.32770000      -0.45940000
C       -1.86390000      -0.67000000       1.77030000
C       -1.94970000       0.60130000       2.63920000
C       -3.28240000      -1.24050000       1.58590000
C       -0.97740000      -1.70770000       2.48580000
H        1.48820000       1.51260000       0.00350000
H        0.44530000       0.95730000      -1.32690000
H       -0.17310000       2.14330000      -0.14830000
H       -1.90570000       0.57340000       0.01430000
H       -2.20870000      -1.82830000      -0.81250000
H       -1.04060000      -0.83010000      -1.67490000
H        0.49770000      -1.85370000      -0.11610000
H       -2.62930000       1.34030000       2.19870000
H       -2.32730000       0.35860000       3.63800000
H       -0.96630000       1.06460000       2.74940000
H       -3.27350000      -2.21430000       1.08780000
H       -3.75930000      -1.37780000       2.56180000
H       -3.91820000      -0.56410000       1.00200000
H        0.03100000      -1.31460000       2.64150000
H       -1.40130000      -1.94440000       3.46790000
H       -0.89630000      -2.63170000       1.91020000
