19
Properties=species:S:1:pos:R:3 gdb_102283=T pbc="F F F"
C       -0.28960000       1.37430000       0.08110000
C       -0.23330000      -0.11760000      -0.25460000
N        0.74270000      -0.44540000      -1.29230000
C        2.16230000      -0.48340000      -0.94190000
C        2.57840000      -1.88260000      -0.45190000
N        2.77450000      -2.77190000      -1.46110000
O        2.70080000      -2.14080000       0.73060000
C        0.36890000      -0.83980000      -2.53250000
O        1.13190000      -1.24080000      -3.39870000
H        0.67500000       1.74330000       0.44150000
H       -0.57250000       1.96150000      -0.79750000
H       -1.02790000       1.55220000       0.86890000
H        0.00970000      -0.70350000       0.63910000
H       -1.21260000      -0.45950000      -0.60400000
H        2.73670000      -0.19460000      -1.82520000
H        2.35130000       0.22010000      -0.13140000
H        2.47520000      -2.53260000      -2.39800000
H        2.91740000      -3.73860000      -1.21460000
H       -0.72150000      -0.75790000      -2.69390000
