21
Properties=species:S:1:pos:R:3 gdb_104035=T pbc="F F F"
C       -0.43330000       1.30690000       0.02510000
C       -0.11760000      -0.16930000       0.29180000
C        1.00390000      -0.42770000       1.31750000
O        2.21500000       0.21250000       0.91220000
C        0.59380000      -0.01390000       2.77110000
C        0.17920000      -1.29610000       3.45780000
O       -0.77400000      -2.07100000       2.71270000
C        0.61410000      -2.44190000       2.65230000
C        1.32730000      -1.94620000       1.41610000
H        0.42330000       1.83600000      -0.40870000
H       -1.25300000       1.39660000      -0.69370000
H       -0.73740000       1.84140000       0.93140000
H       -1.01430000      -0.68890000       0.64280000
H        0.18040000      -0.64180000      -0.65190000
H        2.03430000       1.15160000       0.80310000
H        1.47130000       0.40110000       3.27920000
H       -0.19630000       0.74260000       2.79220000
H        0.06480000      -1.33750000       4.53820000
H        0.85070000      -3.41270000       3.08010000
H        1.03470000      -2.48850000       0.51200000
H        2.40840000      -2.06520000       1.54320000
