15
Properties=species:S:1:pos:R:3 gdb_11225=T pbc="F F F"
C        0.01430000       1.52730000       0.04370000
C        0.03040000       0.03490000       0.00220000
C       -0.10430000      -0.77450000      -1.04410000
C       -0.04350000      -2.21420000      -0.58810000
O        0.25250000      -2.15560000       0.80040000
C        0.19950000      -0.79950000       1.24620000
C       -1.32310000      -2.92580000      -0.82420000
N       -2.31920000      -3.47510000      -1.02670000
H        0.95070000       1.92040000       0.45760000
H       -0.12740000       1.95540000      -0.95120000
H       -0.79300000       1.89110000       0.69100000
H       -0.26300000      -0.49690000      -2.07730000
H        0.74450000      -2.78960000      -1.09550000
H        1.12810000      -0.56960000       1.78740000
H       -0.63600000      -0.65860000       1.94980000
