20
Properties=species:S:1:pos:R:3 gdb_108149=T pbc="F F F"
O        0.43990000       0.49670000       0.95290000
C       -0.09780000       0.24050000      -0.33920000
C       -1.48660000      -0.29040000      -0.17780000
C       -2.58220000       0.31400000       0.69160000
N       -3.17690000      -1.06100000       0.90340000
C       -4.25700000      -1.27160000      -0.08140000
C       -3.61600000      -1.08660000      -1.49200000
C       -2.13180000      -1.25200000      -1.17750000
C       -1.96650000      -1.65480000       0.26110000
H        1.27100000       0.96800000       0.84270000
H       -0.12140000       1.16280000      -0.94360000
H        0.51610000      -0.49110000      -0.88970000
H       -2.19030000       0.70720000       1.63190000
H       -3.26390000       1.04800000       0.24330000
H       -4.63230000      -2.29390000       0.03640000
H       -5.08430000      -0.58380000       0.11600000
H       -3.95820000      -1.84450000      -2.20340000
H       -3.84530000      -0.10800000      -1.92650000
H       -1.46000000      -1.67220000      -1.91840000
H       -1.45450000      -2.52120000       0.65950000
