21
Properties=species:S:1:pos:R:3 gdb_84559=T pbc="F F F"
C       -0.06230000       1.56890000       0.00530000
C       -0.00930000       0.03330000      -0.02220000
C        0.59390000      -0.47680000      -1.31390000
C        1.40120000      -1.53850000      -1.36470000
C        1.73420000      -2.33860000      -0.15860000
C        2.52880000      -1.79560000       1.03050000
C        2.31780000      -0.29040000       1.17980000
C        0.76350000      -0.52950000       1.17930000
C        1.03250000      -2.05050000       1.13690000
H        0.94290000       2.00110000      -0.03970000
H       -0.62930000       1.95830000      -0.84690000
H       -0.54350000       1.92810000       0.92130000
H       -1.04880000      -0.32870000       0.04180000
H        0.35440000       0.07110000      -2.22280000
H        1.83090000      -1.85460000      -2.31190000
H        1.93540000      -3.39110000      -0.33850000
H        3.34670000      -2.36850000       1.45220000
H        2.67190000       0.08540000       2.14250000
H        2.71970000       0.34290000       0.38280000
H        0.30240000      -0.20570000       2.11610000
H        0.49560000      -2.80850000       1.69450000
