11
Properties=species:S:1:pos:R:3 gdb_23815=T pbc="F F F"
F        0.01040000       0.01120000       0.00340000
C       -0.01180000       1.33200000       0.01060000
C       -1.17540000       2.00280000       0.02950000
N       -1.12440000       3.37950000       0.03610000
N        0.01700000       4.09320000       0.02480000
N        1.12550000       3.49020000       0.00700000
C        1.24350000       2.06220000      -0.00200000
N        2.37760000       1.47900000      -0.02010000
H       -2.14870000       1.53160000       0.03990000
H       -1.95670000       3.94590000       0.05010000
H        3.11170000       2.19100000      -0.02600000
