16
Properties=species:S:1:pos:R:3 gdb_68061=T pbc="F F F"
O       -0.08750000       1.31020000       0.03290000
C        0.05100000      -0.05470000       0.01190000
C        0.63840000      -0.96260000      -1.11610000
C        0.07830000      -1.91590000      -0.01190000
O       -0.02010000      -3.28440000      -0.02600000
C        0.73580000      -0.98910000       1.06050000
C       -1.18870000      -1.00410000       0.03070000
C       -2.03840000      -1.03170000       1.20920000
N       -2.72460000      -1.05370000       2.13930000
H        0.78340000       1.71210000       0.12200000
H        0.11860000      -0.95790000      -2.07670000
H        1.72500000      -0.94520000      -1.23170000
H        0.86220000      -3.66270000       0.05410000
H        1.82920000      -0.97330000       1.07840000
H        0.30500000      -1.00820000       2.06260000
H       -1.79080000      -1.00130000      -0.88080000
