20
Properties=species:S:1:pos:R:3 gdb_84795=T pbc="F F F"
C       -0.03250000       1.61790000      -0.03250000
C        0.00720000       0.08400000       0.03730000
C        0.70450000      -0.54970000      -1.13760000
C        1.77680000      -1.24250000      -0.77000000
C        1.95950000      -1.21790000       0.72330000
N        0.81030000      -0.42540000       1.16610000
C        0.35870000      -0.31200000       2.44920000
C        1.22640000      -0.94600000       3.52580000
O       -0.68430000       0.26730000       2.71400000
H        0.97820000       2.02680000      -0.12770000
H       -0.61740000       1.93950000      -0.90070000
H       -0.49950000       2.01380000       0.87050000
H       -1.02500000      -0.27670000       0.14570000
H        0.35320000      -0.40610000      -2.15190000
H        2.45850000      -1.77370000      -1.42210000
H        1.94950000      -2.22920000       1.15510000
H        2.91860000      -0.76170000       1.01420000
H        2.26260000      -0.59720000       3.47120000
H        0.80470000      -0.68640000       4.49610000
H        1.24260000      -2.03690000       3.42550000
