25
Properties=species:S:1:pos:R:3 gdb_118066=T pbc="F F F"
C        0.11560000       1.56790000      -0.05700000
C        0.04940000       0.04670000       0.09980000
C       -1.36010000      -0.51590000      -0.10490000
C       -1.44200000      -2.03420000       0.10200000
O       -0.97550000      -2.41900000       1.39040000
C       -2.86720000      -2.57800000      -0.11370000
C       -2.89680000      -4.10550000      -0.16990000
O       -3.62110000      -2.06970000       0.98800000
C       -5.02070000      -2.10010000       0.83500000
H        1.13320000       1.94110000       0.09580000
H       -0.20650000       1.88130000      -1.05680000
H       -0.53470000       2.06910000       0.66890000
H        0.73560000      -0.42590000      -0.61630000
H        0.40160000      -0.24570000       1.09440000
H       -2.06290000      -0.03360000       0.58630000
H       -1.71100000      -0.27960000      -1.11950000
H       -0.77340000      -2.53010000      -0.61350000
H       -1.68650000      -2.18640000       2.00140000
H       -3.27240000      -2.16130000      -1.05030000
H       -3.91830000      -4.49030000      -0.23360000
H       -2.35440000      -4.46000000      -1.05230000
H       -2.41580000      -4.51790000       0.72050000
H       -5.33900000      -1.56170000      -0.07100000
H       -5.41880000      -3.12330000       0.78650000
H       -5.45100000      -1.60290000       1.70820000
