23
Properties=species:S:1:pos:R:3 gdb_114080=T pbc="F F F"
C       -0.04000000       1.57840000       0.05760000
C       -0.00040000       0.04690000       0.09060000
C       -1.38250000      -0.59680000      -0.04060000
C       -2.07530000      -0.44720000      -1.43790000
C       -2.34770000      -1.93640000      -1.74120000
O       -3.06590000      -2.25600000      -2.89240000
C       -2.86680000      -2.46320000      -0.38180000
C       -1.40830000      -2.14330000       0.05820000
C       -0.98320000      -2.60010000      -1.36700000
H        0.96260000       2.00500000       0.16080000
H       -0.46270000       1.94860000      -0.88260000
H       -0.65590000       1.97400000       0.87310000
H        0.65940000      -0.31950000      -0.70600000
H        0.45290000      -0.28210000       1.03520000
H       -2.02690000      -0.17550000       0.74150000
H       -2.99990000       0.13620000      -1.40830000
H       -1.41290000       0.00400000      -2.18720000
H       -2.68090000      -1.77630000      -3.63360000
H       -3.68630000      -1.92260000       0.10150000
H       -3.07760000      -3.53420000      -0.41310000
H       -0.97340000      -2.58990000       0.95210000
H       -1.01590000      -3.68490000      -1.48730000
H       -0.06440000      -2.19620000      -1.80220000
