21
Properties=species:S:1:pos:R:3 gdb_108377=T pbc="F F F"
C       -0.99180000       0.74920000      -0.17200000
O        0.03010000      -0.19870000       0.10500000
C        0.60060000      -0.73250000      -1.02890000
C        0.02000000      -1.92590000      -1.79210000
O        1.35130000      -2.47530000      -1.99070000
C        1.92270000      -1.43290000      -1.19250000
C        1.72710000      -0.06730000      -1.82450000
C        1.69260000       0.09890000      -3.33000000
C        2.42530000       1.05010000      -1.06640000
H       -0.60980000       1.59370000      -0.76010000
H       -1.83000000       0.29250000      -0.71670000
H       -1.35430000       1.11550000       0.79080000
H       -0.57440000      -2.57880000      -1.14260000
H       -0.50610000      -1.75120000      -2.73720000
H        2.71650000      -1.69480000      -0.50160000
H        1.35470000      -0.81440000      -3.82390000
H        1.03470000       0.92340000      -3.62760000
H        2.69590000       0.32390000      -3.71000000
H        3.46520000       1.14340000      -1.39850000
H        1.93460000       2.01390000      -1.24380000
H        2.42210000       0.87390000       0.01220000
