15
Properties=species:S:1:pos:R:3 gdb_26306=T pbc="F F F"
C       -0.03790000       1.56580000       0.13670000
C        0.01160000       0.03990000      -0.00240000
O        0.76200000      -0.56170000       1.04590000
C       -1.35230000      -0.56140000      -0.09150000
C       -2.00290000      -1.29130000      -0.99290000
O       -3.26770000      -1.58570000      -0.51750000
C       -3.37910000      -1.01950000       0.72180000
O       -4.32700000      -1.07020000       1.43470000
O       -2.19890000      -0.37760000       0.99600000
H        0.97950000       1.95410000       0.22490000
H       -0.52030000       2.02420000      -0.73180000
H       -0.60280000       1.85370000       1.02910000
H        0.54060000      -0.22710000      -0.92340000
H        0.31760000      -0.36110000       1.87790000
H       -1.73950000      -1.67120000      -1.96370000
