19
Properties=species:S:1:pos:R:3 gdb_114877=T pbc="F F F"
O        0.43950000       0.98080000      -0.68100000
C       -0.39550000       0.58910000       0.38800000
C       -1.40040000      -0.46520000      -0.08140000
O       -2.29600000      -0.84820000       0.94060000
C       -3.57270000      -0.29170000       0.68700000
C       -3.85240000       1.12180000       1.27650000
C       -3.75350000       1.73350000      -0.15450000
C       -3.48070000       0.31560000      -0.73710000
O       -2.16140000       0.04210000      -1.17440000
H       -0.15020000       1.19870000      -1.41320000
H        0.24450000       0.16090000       1.16560000
H       -0.93710000       1.44120000       0.82800000
H       -0.86140000      -1.35320000      -0.43700000
H       -4.32660000      -1.05630000       0.88710000
H       -4.83560000       1.21820000       1.74250000
H       -3.09530000       1.45030000       1.99080000
H       -4.67710000       2.18950000      -0.51820000
H       -2.93330000       2.43510000      -0.31830000
H       -4.17470000      -0.03270000      -1.50520000
