12
Properties=species:S:1:pos:R:3 gdb_19328=T pbc="F F F"
C        0.00320000      -1.19300000      -0.10780000
C        0.05550000       0.00670000      -0.03840000
C        0.07210000       1.41550000       0.10750000
O        0.21760000       2.28500000      -1.02450000
C        1.14580000       2.42530000       0.03890000
C        0.45650000       3.24590000       1.20050000
O       -0.86930000       3.56640000       0.78090000
C       -0.61760000       2.25960000       1.27200000
H       -0.03380000      -2.25180000      -0.18370000
H        2.20310000       2.31610000      -0.16790000
H        0.92990000       3.85720000       1.95730000
H       -1.20640000       1.87160000       2.09320000
