19
Properties=species:S:1:pos:R:3 gdb_106474=T pbc="F F F"
C        0.22930000       1.52360000       0.20910000
C       -0.09690000       0.04750000      -0.05550000
C        0.61060000      -0.49690000      -1.26340000
C        0.79200000      -2.00220000      -1.60980000
C        2.01490000      -1.39660000      -2.32910000
C        1.41760000      -0.59590000      -3.49980000
C        0.30840000       0.08120000      -2.66470000
O       -0.55520000       0.84330000      -3.00070000
O        2.08300000      -0.37190000      -1.28350000
H        1.30550000       1.66260000       0.34380000
H       -0.09620000       2.14940000      -0.62550000
H       -0.27640000       1.87130000       1.11420000
H        0.16810000      -0.56170000       0.81590000
H       -1.17440000      -0.07660000      -0.21990000
H        1.07070000      -2.57470000      -0.72370000
H        0.02530000      -2.51570000      -2.19670000
H        2.94730000      -1.93850000      -2.47940000
H        2.12100000       0.13600000      -3.90420000
H        1.00730000      -1.19090000      -4.32060000
