19
Properties=species:S:1:pos:R:3 gdb_69953=T pbc="F F F"
C       -0.00700000       1.53160000      -0.02700000
C       -0.03630000       0.03340000       0.11140000
C       -1.22080000      -0.76710000      -0.42150000
C       -1.19180000      -2.11270000       0.32480000
O       -0.47810000      -3.16980000      -0.34970000
C        0.48560000      -3.27400000       0.71970000
C       -0.10870000      -2.04090000       1.43710000
C        0.60870000      -0.72640000       1.20440000
O        1.21620000      -0.64070000      -0.09290000
H        0.89720000       1.94180000       0.42950000
H       -0.01570000       1.82220000      -1.08320000
H       -0.88110000       1.98520000       0.45210000
H       -2.15440000      -0.23020000      -0.21750000
H       -1.15190000      -0.92630000      -1.50220000
H       -2.19340000      -2.44740000       0.62030000
H        0.37900000      -4.21670000       1.27070000
H        1.51210000      -3.16790000       0.35640000
H       -0.42050000      -2.17220000       2.47420000
H        1.16220000      -0.24340000       2.00720000
