17
Properties=species:S:1:pos:R:3 gdb_26523=T pbc="F F F"
C        0.13560000       1.51610000       0.06110000
C       -0.06380000       0.03640000       0.03880000
C       -1.20370000      -0.67910000       0.02220000
C       -2.58410000      -0.08930000       0.02260000
C       -1.11340000      -2.14870000       0.00190000
N       -2.17410000      -2.86370000      -0.01390000
N        0.17950000      -2.72290000       0.00050000
C        1.18020000      -1.94420000       0.01740000
O        1.16870000      -0.59570000       0.03700000
H        0.70660000       1.80640000       0.95000000
H        0.71740000       1.83140000      -0.81210000
H       -0.81010000       2.05440000       0.06300000
H       -3.13460000      -0.43260000      -0.85880000
H       -3.14510000      -0.45860000       0.88670000
H       -2.58510000       1.00100000       0.03890000
H       -1.90430000      -3.84930000      -0.02640000
H        2.20100000      -2.31700000       0.01750000
