19
Properties=species:S:1:pos:R:3 gdb_91969=T pbc="F F F"
O       -0.01150000       1.42560000      -0.20100000
C        0.01160000       0.01270000       0.00170000
C        0.56920000      -0.40950000       1.38420000
N       -0.55020000      -0.57720000       2.32890000
C       -1.46970000       0.57260000       2.37490000
C       -1.78540000      -0.59850000       1.51500000
C       -1.42980000      -0.49030000       0.05850000
C       -2.38770000      -0.21500000      -1.03450000
N       -1.89260000      -1.58610000      -0.81190000
H        0.89130000       1.75070000      -0.11600000
H        0.56660000      -0.47000000      -0.81700000
H        1.07110000      -1.38000000       1.29710000
H        1.29790000       0.31220000       1.77020000
H       -1.98430000       0.69020000       3.32430000
H       -1.17640000       1.49490000       1.88330000
H       -2.55510000      -1.31400000       1.78660000
H       -3.43920000      -0.06680000      -0.80490000
H       -2.02550000       0.34800000      -1.89000000
H       -1.17920000      -1.81250000      -1.50140000
