20
Properties=species:S:1:pos:R:3 gdb_26116=T pbc="F F F"
C       -0.02990000       1.62550000       0.14970000
C       -0.00420000       0.08820000       0.04570000
C        0.83680000      -0.52490000       1.18410000
C       -1.38040000      -0.49870000      -0.03230000
C       -1.97580000      -1.33260000      -0.95260000
N       -1.42040000      -1.84790000      -2.13790000
N       -3.28430000      -1.58950000      -0.61970000
C       -3.49550000      -0.92630000       0.49680000
N       -2.38330000      -0.26310000       0.90310000
H        0.98620000       2.03300000       0.13370000
H       -0.59250000       2.06660000      -0.67750000
H       -0.49590000       1.95550000       1.08630000
H        0.47860000      -0.16850000      -0.90530000
H        0.39750000      -0.30100000       2.16350000
H        0.89570000      -1.61320000       1.09060000
H        1.85570000      -0.12290000       1.17970000
H       -0.56920000      -2.37270000      -1.97680000
H       -2.09700000      -2.45760000      -2.58200000
H       -4.42390000      -0.89400000       1.04690000
H       -2.30000000       0.30820000       1.72650000
