18
Properties=species:S:1:pos:R:3 gdb_68360=T pbc="F F F"
O       -0.06190000       1.43460000      -0.04650000
C        0.05080000       0.03340000       0.08110000
C        0.16980000      -0.58130000       1.50070000
C       -0.81950000      -1.68790000       1.02120000
C       -1.28960000      -0.70630000      -0.09420000
N       -0.16930000      -2.87700000       0.52030000
C        0.78150000      -2.84610000      -0.30820000
O        1.44710000      -1.84280000      -0.94050000
C        1.13450000      -0.44600000      -0.88640000
H        0.76260000       1.83780000       0.24850000
H        1.15110000      -0.91010000       1.85250000
H       -0.29060000       0.08160000       2.23800000
H       -1.58030000      -1.99170000       1.74100000
H       -2.11260000      -0.07110000       0.24150000
H       -1.52320000      -1.13510000      -1.07140000
H        1.23550000      -3.78150000      -0.63370000
H        0.84860000      -0.14070000      -1.89940000
H        2.07880000       0.05600000      -0.63680000
