23
Properties=species:S:1:pos:R:3 gdb_70788=T pbc="F F F"
C       -0.03200000       1.50110000       0.08520000
C        0.03590000      -0.00720000       0.04900000
C        0.93500000      -0.77130000      -0.96330000
C        0.84240000      -1.91910000       0.05330000
C        1.76670000      -3.11010000       0.05400000
C       -0.69690000      -2.13390000       0.43820000
C       -0.33840000      -1.73690000       1.89620000
C        0.72100000      -0.86580000       1.21040000
C       -1.28010000      -0.81030000      -0.09360000
H        0.96350000       1.94600000       0.19140000
H       -0.47510000       1.89760000      -0.83650000
H       -0.64560000       1.85190000       0.92310000
H        0.56130000      -0.90680000      -1.98530000
H        1.95530000      -0.37230000      -0.99750000
H        2.81650000      -2.79890000       0.01070000
H        1.63840000      -3.72600000       0.95120000
H        1.57740000      -3.75410000      -0.81360000
H       -1.21850000      -3.06380000       0.20820000
H       -1.12100000      -1.26990000       2.50360000
H        0.12240000      -2.55160000       2.46210000
H        1.58430000      -0.42870000       1.71430000
H       -2.09920000      -0.43570000       0.52930000
H       -1.62650000      -0.85110000      -1.13110000
