19
Properties=species:S:1:pos:R:3 gdb_38251=T pbc="F F F"
C       -0.01000000       1.66610000       0.01030000
C        1.48930000       1.31870000       0.02550000
C        1.12160000       0.10370000       0.95180000
C       -0.08150000       0.09890000      -0.02410000
O       -1.26050000      -0.62990000      -0.02610000
C       -1.63560000      -0.81650000      -1.41850000
C       -0.52020000      -0.19460000      -2.31640000
C        0.64570000      -0.21530000      -1.32890000
O        1.69330000       0.75890000      -1.30030000
H       -0.38200000       2.06910000       0.95380000
H       -0.37590000       2.24340000      -0.84040000
H        2.28170000       2.02460000       0.26050000
H        1.78550000      -0.76370000       0.95330000
H        0.88830000       0.42730000       1.96730000
H       -1.74110000      -1.89310000      -1.59130000
H       -2.60940000      -0.34690000      -1.58990000
H       -0.35730000      -0.78300000      -3.22160000
H       -0.77070000       0.82700000      -2.61130000
H        1.08590000      -1.22130000      -1.30580000
