21
Properties=species:S:1:pos:R:3 gdb_81378=T pbc="F F F"
C        0.00230000       1.62680000      -0.11610000
C        0.05030000       0.10760000      -0.03470000
C        1.03690000      -0.75130000      -0.86290000
C        2.44910000      -0.18070000      -0.83380000
O        2.72390000       0.43660000       0.42180000
C        2.06860000      -0.15780000       1.54970000
C        2.02540000       0.88260000       2.66020000
C        0.70510000      -0.70180000       1.12000000
O        0.97900000      -1.77630000       0.17120000
H        0.98860000       2.07690000      -0.00010000
H       -0.40890000       1.93840000      -1.08300000
H       -0.65720000       2.03500000       0.65770000
H       -0.95020000      -0.30800000      -0.18520000
H        0.75000000      -1.12550000      -1.85010000
H        3.15920000      -0.99800000      -1.03220000
H        2.58870000       0.59500000      -1.59570000
H        2.65130000      -1.02990000       1.88890000
H        1.38010000       1.72580000       2.40090000
H        1.65340000       0.43170000       3.58570000
H        3.03140000       1.26810000       2.84590000
H        0.09610000      -1.03240000       1.96670000
