19
Properties=species:S:1:pos:R:3 gdb_38587=T pbc="F F F"
C        0.07770000       1.45790000       0.11710000
C        1.32380000       0.65870000      -0.00480000
N       -0.03290000      -0.00230000      -0.00720000
C       -0.35800000      -0.48380000      -1.39600000
C        0.65180000       0.22600000      -2.30830000
N        1.84250000      -0.32170000      -3.18440000
C        2.57170000       0.94320000      -2.66770000
C        1.84850000       0.42700000      -1.38740000
C        2.33550000      -0.96070000      -1.88030000
H       -0.20880000       1.85030000       1.08890000
H       -0.21860000       2.08690000      -0.71950000
H        1.93590000       0.45560000       0.86850000
H       -0.28880000      -1.57340000      -1.39180000
H       -1.39180000      -0.21760000      -1.63050000
H        0.22800000       1.10790000      -2.79380000
H        3.65920000       0.85400000      -2.72180000
H        2.21650000       1.87210000      -3.12080000
H        1.78340000      -1.85180000      -1.58110000
H        3.41160000      -1.15310000      -1.87440000
