14
Properties=species:S:1:pos:R:3 gdb_130383=T pbc="F F F"
N        0.19210000       1.39590000       0.00690000
C        0.00520000       0.06970000       0.00070000
N        0.96980000      -0.79600000      -0.01170000
H        2.01330000      -0.59260000      -0.01840000
C        0.94750000      -2.18060000      -0.01950000
N       -0.05210000      -3.02390000      -0.01670000
O        0.59170000      -4.24770000      -0.02870000
C        1.95320000      -4.08660000      -0.03820000
C        2.28510000      -2.73380000      -0.03270000
O        3.29880000      -1.97020000      -0.03610000
H        1.11520000       1.79960000       0.00220000
H       -0.59580000       2.01840000       0.01640000
H       -1.01620000      -0.29590000       0.00630000
H        2.51510000      -5.00490000      -0.04790000
