14
Properties=species:S:1:pos:R:3 gdb_30418=T pbc="F F F"
C       -0.01260000       1.45780000      -0.21850000
N       -0.06650000       0.01480000      -0.31980000
C       -1.05950000      -0.64420000       0.07150000
O       -2.18570000       0.02970000       0.63920000
C       -3.29550000      -0.59630000       1.08610000
O       -4.22370000      -0.00650000       1.55690000
N       -3.25100000      -1.97830000       0.94560000
C       -2.16420000      -2.61540000       0.39890000
N       -1.11380000      -2.02630000      -0.02440000
H        0.86740000       1.73190000       0.37440000
H        0.14650000       1.87090000      -1.22100000
H       -0.89890000       1.92380000       0.22260000
H       -4.06060000      -2.48550000       1.26720000
H       -2.24200000      -3.69840000       0.33970000
