12
Properties=species:S:1:pos:R:3 gdb_133398=T pbc="F F F"
F        0.03660000       0.02540000       0.00280000
C       -0.03210000       1.35090000       0.01100000
C       -1.22110000       1.99550000       0.03080000
F       -2.36460000       1.34360000       0.04280000
C       -1.27290000       3.45120000       0.03940000
N       -2.38290000       4.08600000       0.05810000
N        0.01460000       4.01390000       0.02500000
N        1.20600000       3.39430000       0.00540000
C        1.18780000       2.09780000      -0.00150000
H       -2.24440000       5.09700000       0.06180000
H        0.08220000       5.02120000       0.02960000
H        2.13960000       1.58090000      -0.01730000
