15
Properties=species:S:1:pos:R:3 gdb_4435=T pbc="F F F"
C        0.12230000       1.53750000       0.04190000
C        0.00760000       0.05660000       0.00700000
C       -1.07700000      -0.73050000       0.03930000
N       -2.42850000      -0.42000000       0.11480000
O       -0.66960000      -2.08070000      -0.01770000
C        0.70460000      -2.11300000      -0.08700000
N        1.45860000      -3.13170000      -0.15270000
N        1.11190000      -0.79590000      -0.07080000
H        0.70520000       1.87600000       0.90700000
H        0.61580000       1.92470000      -0.85780000
H       -0.87600000       1.97370000       0.10440000
H       -2.94890000      -0.75520000      -0.69080000
H       -2.86810000      -0.80230000       0.94720000
H        0.90570000      -3.98450000      -0.14890000
H        2.07960000      -0.53300000      -0.11370000
