18
Properties=species:S:1:pos:R:3 gdb_31731=T pbc="F F F"
C       -0.04560000       1.40520000       0.10880000
N       -0.01160000      -0.02650000      -0.11280000
C       -1.20360000      -0.71900000      -0.09310000
C       -2.48860000      -0.28280000      -0.21360000
O       -3.30150000      -1.40150000      -0.19530000
C       -2.45640000      -2.44220000      -0.04560000
C       -3.05300000      -3.80810000       0.09060000
N       -3.74300000      -4.06290000       1.36350000
N       -1.20400000      -2.10310000       0.02380000
H        0.97450000       1.79460000       0.11100000
H       -0.58550000       1.89380000      -0.71050000
H       -0.53640000       1.69080000       1.05340000
H        0.72530000      -0.52360000       0.36550000
H       -2.97380000       0.66760000      -0.33450000
H       -3.76910000      -3.97430000      -0.72130000
H       -2.24450000      -4.53360000      -0.02610000
H       -3.09370000      -3.90980000       2.13070000
H       -4.48440000      -3.37810000       1.48420000
