23
Properties=species:S:1:pos:R:3 gdb_110698=T pbc="F F F"
C        0.46590000       1.66260000       0.43200000
C        0.01520000       0.21150000       0.22140000
C        0.70250000      -0.42730000      -0.96860000
C        2.07150000      -1.09550000      -0.91080000
C        2.49410000      -1.63300000       0.41530000
C        1.70280000      -2.62710000       0.82550000
C        0.64610000      -2.98730000      -0.20520000
C       -0.77740000      -3.15970000       0.34800000
C        0.83060000      -1.90390000      -1.27710000
H        1.54180000       1.71300000       0.63020000
H        0.26470000       2.27440000      -0.45470000
H       -0.05460000       2.12180000       1.27830000
H        0.21310000      -0.36390000       1.12970000
H       -1.07130000       0.18620000       0.06620000
H        0.57230000       0.16040000      -1.87710000
H        2.82360000      -0.81050000      -1.63930000
H        3.32930000      -1.22560000       0.97490000
H        1.77700000      -3.13990000       1.77910000
H        0.92590000      -3.95180000      -0.65820000
H       -1.13750000      -2.25260000       0.83910000
H       -1.47760000      -3.40720000      -0.45640000
H       -0.81210000      -3.97450000       1.07950000
H        0.65320000      -2.19640000      -2.30640000
