20
Properties=species:S:1:pos:R:3 gdb_19525=T pbc="F F F"
C       -0.03140000       1.52350000      -0.21270000
C       -0.00150000       0.07070000       0.27880000
C       -1.35090000      -0.61060000       0.13860000
C       -1.85330000      -1.27530000      -1.12570000
C       -0.83610000      -1.72670000      -2.15760000
O        0.16940000      -2.44890000      -1.44840000
C       -0.40150000      -3.00000000      -0.26300000
C       -1.56990000      -2.10610000       0.10920000
H        0.94360000       2.00450000      -0.08610000
H       -0.29650000       1.57630000      -1.27400000
H       -0.76930000       2.11620000       0.34000000
H        0.76300000      -0.48940000      -0.26530000
H        0.29280000       0.05330000       1.33660000
H       -2.14130000      -0.08370000       0.67190000
H       -2.86580000      -1.08570000      -1.46370000
H       -1.32870000      -2.36630000      -2.90800000
H       -0.32990000      -0.91190000      -2.68760000
H       -0.76160000      -4.02700000      -0.43670000
H        0.39640000      -3.04250000       0.48690000
H       -2.36950000      -2.53920000       0.69970000
