18
Properties=species:S:1:pos:R:3 gdb_10336=T pbc="F F F"
C        0.41040000       1.26790000      -0.17890000
O        0.19970000      -0.08320000       0.19250000
C       -1.12760000      -0.53590000       0.00310000
C       -1.38140000      -0.77840000      -1.48570000
O       -2.23520000      -0.23050000      -2.13140000
C       -1.28500000      -1.85170000       0.78260000
C       -1.20630000      -1.64380000       2.29070000
O       -2.47770000      -2.51170000       0.37660000
H        1.46040000       1.49090000       0.02170000
H        0.20500000       1.44370000      -1.24370000
H       -0.22160000       1.94740000       0.41120000
H       -1.85920000       0.21110000       0.35400000
H       -0.66010000      -1.49230000      -1.94450000
H       -0.47270000      -2.51550000       0.46380000
H       -2.03080000      -1.00800000       2.63730000
H       -1.27180000      -2.60380000       2.80930000
H       -0.26590000      -1.15580000       2.55880000
H       -3.22960000      -1.98350000       0.66840000
