16
Properties=species:S:1:pos:R:3 gdb_96753=T pbc="F F F"
C        0.28070000       0.85050000       0.64330000
N       -0.03330000      -0.45290000       0.10180000
C       -1.22840000      -0.79020000      -0.17490000
N       -1.53060000      -2.05480000      -0.62620000
C       -0.44900000      -2.94250000      -1.00200000
C        0.38250000      -3.38170000       0.20320000
O        1.47000000      -3.87820000       0.10080000
C       -2.39500000       0.07230000      -0.02560000
N       -3.30660000       0.77410000       0.08840000
H        0.74860000       0.72780000       1.62680000
H        1.02220000       1.33540000      -0.00100000
H       -0.58400000       1.51960000       0.74880000
H       -2.42880000      -2.18100000      -1.06250000
H       -0.89050000      -3.84300000      -1.44270000
H        0.23040000      -2.49670000      -1.73850000
H       -0.12650000      -3.24690000       1.18270000
