14
Properties=species:S:1:pos:R:3 gdb_129360=T pbc="F F F"
N       -0.45000000       1.06760000      -0.02900000
C       -0.56820000      -0.15530000      -0.30130000
O       -0.59970000      -1.05890000       0.71330000
C       -0.81740000      -2.41510000       0.34400000
C       -2.26800000      -2.69530000       0.09410000
N       -2.95170000      -2.45600000      -0.98570000
C       -4.20800000      -2.86880000      -0.61640000
N       -4.30360000      -3.33880000       0.59740000
O       -2.99830000      -3.22230000       1.08230000
H       -0.41850000       1.61540000      -0.88620000
H       -0.64710000      -0.60970000      -1.29630000
H       -0.24940000      -2.67750000      -0.55530000
H       -0.46370000      -3.01880000       1.18070000
H       -5.06760000      -2.82250000      -1.26880000
