21
Properties=species:S:1:pos:R:3 gdb_120226=T pbc="F F F"
C        0.66120000       1.41950000       0.06750000
O        0.76830000       0.02840000      -0.11490000
C       -0.19260000      -0.48480000      -1.01560000
C        0.00920000      -1.98310000      -1.09740000
C       -0.68580000      -2.88410000      -2.14860000
C       -0.32240000      -2.26360000      -3.51560000
C        1.20260000      -2.06160000      -3.24090000
C        1.22170000      -2.63600000      -1.80910000
O        0.40350000      -3.84140000      -1.96460000
H        0.80660000       1.96960000      -0.87610000
H       -0.32040000       1.70360000       0.47940000
H        1.43990000       1.71870000       0.77340000
H       -1.21410000      -0.26240000      -0.65870000
H       -0.08700000       0.00040000      -1.99890000
H       -0.10200000      -2.43160000      -0.10800000
H       -1.68110000      -3.30620000      -2.00750000
H       -0.51410000      -2.97150000      -4.32420000
H       -0.86060000      -1.33670000      -3.73250000
H        1.83230000      -2.65370000      -3.90740000
H        1.52760000      -1.01900000      -3.29260000
H        2.17800000      -2.80500000      -1.31630000
