18
Properties=species:S:1:pos:R:3 gdb_31029=T pbc="F F F"
C       -0.03740000       1.63220000      -0.25750000
C       -0.05820000       0.14600000       0.13480000
C       -1.43630000      -0.43400000       0.16190000
C       -2.12030000      -0.95450000       1.22780000
N       -1.85180000      -1.15820000       2.59780000
N       -3.36250000      -1.34600000       0.70940000
C       -3.34130000      -1.03950000      -0.60560000
O       -4.41010000      -1.30390000      -1.37950000
N       -2.21910000      -0.49360000      -0.98870000
H        0.98820000       2.01130000      -0.31160000
H       -0.51010000       1.77250000      -1.23320000
H       -0.58740000       2.23830000       0.47000000
H        0.55840000      -0.41780000      -0.57720000
H        0.40170000       0.01200000       1.12110000
H       -1.06260000      -1.77610000       2.75030000
H       -1.66730000      -0.29150000       3.09020000
H       -4.10920000      -1.77290000       1.23060000
H       -4.17300000      -1.00660000      -2.26710000
