16
Properties=species:S:1:pos:R:3 gdb_65435=T pbc="F F F"
O       -0.06650000       1.34450000       0.14230000
C       -0.02540000      -0.03170000      -0.00620000
C       -0.62520000      -0.88530000       1.09330000
C       -1.34380000      -0.78240000      -0.21930000
C       -2.60350000       0.05780000      -0.35190000
C       -3.78890000      -0.64530000       0.13910000
N       -4.71700000      -1.21360000       0.52710000
C        1.15790000      -0.51490000      -0.74830000
O        1.97340000       0.25560000      -1.20260000
H        0.69060000       1.67310000      -0.36980000
H       -0.14550000      -1.82180000       1.35620000
H       -1.01650000      -0.31850000       1.93110000
H       -1.31080000      -1.65660000      -0.86290000
H       -2.48350000       0.99650000       0.19710000
H       -2.76740000       0.33090000      -1.40040000
H        1.24620000      -1.61290000      -0.87280000
