17
Properties=species:S:1:pos:R:3 gdb_70286=T pbc="F F F"
C       -0.30420000       1.50640000       0.03680000
C       -0.04310000       0.02260000       0.03580000
C       -0.58360000      -0.85950000       1.14800000
C        0.90780000      -0.75280000       1.00240000
N        1.49350000      -1.73420000       0.14000000
C        0.97600000      -1.55420000      -1.11460000
C        1.43200000      -2.39140000      -2.24360000
O        2.27330000      -3.25190000      -2.12440000
N        0.11530000      -0.59720000      -1.25190000
H        0.46130000       2.03990000      -0.53480000
H       -1.27660000       1.72210000      -0.41830000
H       -0.31170000       1.90150000       1.05700000
H       -1.02490000      -0.33120000       1.98600000
H       -1.06230000      -1.79800000       0.88820000
H        1.53440000      -0.31210000       1.76910000
H        2.37080000      -2.20100000       0.29630000
H        0.95260000      -2.14030000      -3.20870000
