23
Properties=species:S:1:pos:R:3 gdb_86904=T pbc="F F F"
C        0.29880000       1.39160000       0.33040000
C        0.01420000      -0.04170000      -0.06890000
C        0.64870000      -0.59940000      -1.36230000
C        1.22770000      -1.69350000      -0.44130000
C        2.73270000      -1.90480000      -0.40830000
C        3.16340000      -2.80020000       0.73410000
C        3.19360000      -4.29930000       0.56360000
C        4.48330000      -3.52430000       0.69050000
O        0.74320000      -1.00000000       0.73760000
H        1.36810000       1.61100000       0.25210000
H       -0.25000000       2.08550000      -0.31620000
H       -0.01310000       1.56960000       1.36450000
H       -1.06590000      -0.24120000      -0.00800000
H       -0.03550000      -0.92550000      -2.14700000
H        1.40950000       0.05680000      -1.79430000
H        0.71770000      -2.66230000      -0.54650000
H        3.04690000      -2.34110000      -1.36680000
H        3.22170000      -0.92520000      -0.32570000
H        2.84590000      -2.43960000       1.70800000
H        2.88150000      -4.92280000       1.39410000
H        2.94360000      -4.70560000      -0.41160000
H        5.09480000      -3.41130000      -0.19920000
H        5.05310000      -3.61760000       1.60860000
