13
Properties=species:S:1:pos:R:3 gdb_43271=T pbc="F F F"
O        0.03970000      -0.01650000      -0.01520000
C       -0.01330000       1.18610000       0.01250000
C       -1.22650000       2.05100000       0.09220000
C       -0.89510000       3.34320000      -0.00620000
C        0.59750000       3.51090000      -0.09980000
N        1.28320000       3.00430000       1.13060000
C        1.17890000       2.13920000      -0.06520000
C        1.18180000       4.58470000      -0.84930000
N        1.64530000       5.46410000      -1.44090000
H       -2.21880000       1.64270000       0.22960000
H       -1.56690000       4.19160000       0.01860000
H        2.22910000       3.38810000       1.16900000
H        2.06850000       1.85830000      -0.61540000
