20
Properties=species:S:1:pos:R:3 gdb_31036=T pbc="F F F"
C        0.06130000       1.56840000      -0.27140000
C       -0.02060000       0.10460000       0.19670000
C       -1.39960000      -0.48310000       0.12210000
C       -2.25450000      -0.72500000       1.17150000
O       -2.14600000      -0.55810000       2.51780000
N       -3.42630000      -1.24210000       0.69480000
C       -3.35750000      -1.34880000      -0.68690000
C       -4.49380000      -1.88690000      -1.48890000
C       -2.12070000      -0.88540000      -1.05450000
H        1.08740000       1.94790000      -0.21620000
H       -0.27960000       1.66220000      -1.30710000
H       -0.57690000       2.21210000       0.34250000
H        0.67280000      -0.50000000      -0.40240000
H        0.36150000       0.03810000       1.22650000
H       -1.27460000      -0.19460000       2.70300000
H       -4.20010000      -1.51260000       1.27660000
H       -5.40710000      -1.28750000      -1.37680000
H       -4.22870000      -1.88480000      -2.54890000
H       -4.74910000      -2.91940000      -1.21560000
H       -1.75140000      -0.83790000      -2.06910000
