19
Properties=species:S:1:pos:R:3 gdb_38145=T pbc="F F F"
C       -0.09150000       1.42080000       0.12180000
C        1.31870000       0.86010000      -0.00400000
C        2.03050000       0.54710000       1.26820000
C        1.40780000      -0.41120000       1.96400000
C        0.19940000      -0.93990000       1.22900000
C        0.32670000      -2.32800000       0.56250000
O       -0.48930000      -2.25320000      -0.59920000
C       -0.36380000      -0.94630000      -1.16060000
C        0.10210000      -0.05440000      -0.01880000
H       -0.40450000       1.82490000       1.08030000
H       -0.47870000       1.95290000      -0.74250000
H        1.87830000       1.09090000      -0.90500000
H        2.93440000       1.06000000       1.57830000
H        1.70280000      -0.76730000       2.94460000
H       -0.71050000      -0.91280000       1.84060000
H        1.37880000      -2.52370000       0.29930000
H       -0.04270000      -3.15570000       1.17340000
H        0.35430000      -0.95090000      -1.99540000
H       -1.34520000      -0.66250000      -1.55680000
