17
Properties=species:S:1:pos:R:3 gdb_90661=T pbc="F F F"
O        0.03040000       1.34510000       0.01580000
C       -0.01690000      -0.06490000      -0.00250000
C        0.26020000      -0.74130000       1.38470000
C       -1.20730000      -1.18670000       1.43710000
C       -1.47630000      -0.52020000       0.08860000
C       -1.49990000      -2.03030000       0.21020000
O       -0.52850000      -2.82310000      -0.38020000
C       -2.84810000      -2.63760000       0.17890000
O       -3.04130000      -3.72440000      -0.31990000
H        0.95530000       1.61110000      -0.00850000
H        0.54440000      -0.47700000      -0.84930000
H        1.00750000      -1.53680000       1.42450000
H        0.48000000       0.02800000       2.12740000
H       -1.82780000      -1.23610000       2.32500000
H       -2.32060000       0.06230000      -0.26230000
H       -1.00210000      -3.61810000      -0.67380000
H       -3.66540000      -2.04620000       0.63810000
