19
Properties=species:S:1:pos:R:3 gdb_10950=T pbc="F F F"
C        0.01490000       1.55900000       0.05550000
C       -0.04810000       0.06160000       0.06310000
C       -1.32870000      -0.79450000      -0.00220000
C       -0.65420000      -1.82810000       0.96220000
C       -0.55090000      -3.28030000       0.53540000
O       -1.87060000      -3.79970000       0.45150000
C        0.61980000      -0.96600000       0.94040000
N        1.09680000      -0.70510000      -0.41800000
H        1.03090000       1.89890000       0.27240000
H       -0.27030000       1.95740000      -0.92580000
H       -0.66610000       1.98690000       0.79910000
H       -2.20560000      -0.31980000       0.44370000
H       -1.60110000      -1.15740000      -0.99920000
H       -1.13370000      -1.78780000       1.94500000
H       -0.03580000      -3.35850000      -0.43650000
H        0.05540000      -3.83800000       1.26810000
H       -1.81760000      -4.71320000       0.15560000
H        1.32720000      -0.84410000       1.75410000
H        0.84280000      -1.43430000      -1.08190000
