15
Properties=species:S:1:pos:R:3 gdb_127934=T pbc="F F F"
C        0.05180000       1.43030000      -0.20430000
N        0.03280000      -0.01860000      -0.13530000
C       -1.06100000      -0.60190000       0.14050000
N       -2.29240000      -0.00090000       0.39480000
N       -3.45070000      -0.62490000       0.68720000
C       -3.44270000      -1.91040000       0.74280000
C       -2.24560000      -2.74400000       0.50660000
O       -2.23030000      -3.95540000       0.55710000
N       -1.12180000      -1.98900000       0.21630000
H        1.06330000       1.76140000      -0.44970000
H       -0.61760000       1.83050000      -0.98300000
H       -0.22220000       1.90790000       0.75050000
H       -2.35810000       1.00190000       0.36510000
H       -4.37270000      -2.41300000       0.97760000
H       -0.25350000      -2.47680000       0.03980000
