12
Properties=species:S:1:pos:R:3 gdb_2844=T pbc="F F F"
O        0.03860000       1.38590000      -0.30330000
C        0.05510000       0.09880000       0.28300000
C       -1.32420000      -0.51380000       0.26690000
O       -1.76220000      -1.03220000      -0.99510000
C       -1.56840000      -1.95930000       0.07290000
C       -0.47770000      -2.90180000      -0.06860000
N        0.37610000      -3.67500000      -0.16260000
H       -0.18630000       1.27630000      -1.23400000
H        0.76570000      -0.57560000      -0.21390000
H        0.38370000       0.23340000       1.31890000
H       -2.09190000       0.04500000       0.80270000
H       -2.47950000      -2.39580000       0.47800000
