21
Properties=species:S:1:pos:R:3 gdb_76131=T pbc="F F F"
C       -0.09300000       1.49910000       0.11370000
C        0.01990000       0.00850000      -0.13200000
O        1.09650000      -0.49120000      -0.44510000
C       -1.21750000      -0.78230000      -0.00950000
C       -1.30370000      -2.11240000      -0.80220000
O       -0.25960000      -2.50430000      -1.61330000
C       -1.25600000      -2.17940000       0.68550000
C       -0.02470000      -2.71610000       1.38490000
C       -2.55940000      -2.46690000       1.40850000
H        0.88270000       1.97070000      -0.00690000
H       -0.80660000       1.94400000      -0.58910000
H       -0.47800000       1.69030000       1.12160000
H       -2.12710000      -0.19870000       0.08890000
H       -2.26260000      -2.30200000      -1.27880000
H        0.52130000      -1.98100000      -1.35220000
H        0.89830000      -2.45740000       0.86760000
H        0.03900000      -2.32830000       2.40770000
H       -0.08680000      -3.80820000       1.44580000
H       -2.67860000      -3.54550000       1.56190000
H       -2.58170000      -1.98410000       2.39230000
H       -3.42600000      -2.11290000       0.84100000
