16
Properties=species:S:1:pos:R:3 gdb_128694=T pbc="F F F"
C       -0.00790000       1.36500000       0.02890000
O        0.03360000      -0.05900000       0.05140000
C        0.65160000      -0.63740000       1.08310000
N        1.17910000       0.10650000       2.00450000
N        1.79740000      -0.52940000       3.03320000
C        1.88470000      -1.87630000       3.14230000
C        1.34500000      -2.68510000       2.19830000
C        0.66110000      -2.12230000       1.05100000
N        0.09660000      -2.73530000       0.06930000
H        1.00190000       1.78690000       0.00750000
H       -0.54870000       1.62660000      -0.88100000
H       -0.52850000       1.75660000       0.90850000
H        2.18570000       0.08900000       3.72320000
H        2.40700000      -2.23990000       4.02000000
H        1.42240000      -3.76110000       2.29660000
H        0.19180000      -3.74570000       0.19900000
