25
Properties=species:S:1:pos:R:3 gdb_58959=T pbc="F F F"
C       -0.00740000       1.56430000       0.13350000
C        0.02820000       0.02770000       0.12260000
C        0.73920000      -0.51570000       1.37040000
C       -1.37200000      -0.54630000      -0.07100000
C       -2.41530000      -0.39530000       1.08330000
C       -2.64420000      -1.93640000       1.09040000
C       -1.70230000      -2.09280000      -0.12640000
C       -2.38480000      -1.88700000      -1.50490000
C       -2.01310000      -0.37450000      -1.47860000
H        1.00240000       1.98160000       0.20640000
H       -0.46960000       1.96180000      -0.77570000
H       -0.58160000       1.93660000       0.99000000
H        0.61980000      -0.28650000      -0.75080000
H        0.77000000      -1.60990000       1.37080000
H        1.77150000      -0.15300000       1.41430000
H        0.24290000      -0.19290000       2.29210000
H       -2.00980000      -0.00390000       2.01950000
H       -3.28980000       0.20770000       0.82220000
H       -2.25500000      -2.41310000       1.99410000
H       -3.67310000      -2.27930000       0.94310000
H       -0.93860000      -2.87150000      -0.07240000
H       -1.91490000      -2.43950000      -2.32230000
H       -3.45570000      -2.11140000      -1.52110000
H       -2.84500000       0.33360000      -1.54100000
H       -1.28130000      -0.10420000      -2.24640000
