13
Properties=species:S:1:pos:R:3 gdb_6250=T pbc="F F F"
C        0.36690000       1.09350000      -0.13980000
C       -0.51640000      -0.06070000       0.23390000
N       -1.18700000      -0.28100000       1.27170000
O       -0.67480000      -1.01150000      -0.79500000
C        0.39110000      -1.74540000      -1.19100000
O        1.50180000      -1.68680000      -0.74860000
C       -0.06460000      -2.69220000      -2.31450000
O        0.70290000      -3.43110000      -2.85980000
H        1.39050000       0.74260000      -0.29190000
H        0.02140000       1.54160000      -1.07710000
H        0.35670000       1.85230000       0.64440000
H       -1.06670000       0.47680000       1.94330000
H       -1.14150000      -2.62610000      -2.56420000
