19
Properties=species:S:1:pos:R:3 gdb_86233=T pbc="F F F"
C        0.02550000       1.57090000      -0.04130000
C        0.08260000       0.06150000      -0.06290000
O        0.84950000      -0.39680000      -1.15010000
C        1.22690000      -1.72050000      -0.80420000
C        2.44460000      -2.14890000      -1.59730000
C        1.44710000      -1.60970000       0.73860000
O        0.73560000      -0.42600000       1.10540000
C        0.98870000      -2.78630000       1.46970000
C        0.62350000      -3.77180000       2.05250000
H        1.03900000       1.97710000      -0.00560000
H       -0.48040000       1.93850000      -0.93770000
H       -0.52750000       1.90760000       0.83880000
H       -0.93110000      -0.37770000      -0.11450000
H        0.38650000      -2.40740000      -0.98710000
H        3.27670000      -1.46020000      -1.42350000
H        2.75140000      -3.15640000      -1.30090000
H        2.21990000      -2.15860000      -2.66690000
H        2.51100000      -1.44080000       0.95290000
H        0.30060000      -4.63670000       2.57760000
