20
Properties=species:S:1:pos:R:3 gdb_103391=T pbc="F F F"
C       -0.13470000       1.58260000       0.06730000
C        0.12350000       0.06960000       0.11630000
C        0.68450000      -0.49560000      -1.18880000
C        2.06280000       0.07860000      -1.52960000
N        0.78650000      -2.01960000      -1.28180000
C       -0.56610000      -2.55890000      -1.23980000
C       -0.08290000      -2.00410000      -2.53790000
C       -0.17360000      -0.50790000      -2.48290000
O       -0.55530000       0.34270000      -3.23600000
H        0.79450000       2.15170000      -0.02350000
H       -0.77110000       1.84480000      -0.78300000
H       -0.63470000       1.91200000       0.98270000
H        0.83030000      -0.16820000       0.92220000
H       -0.81360000      -0.43340000       0.37370000
H        2.74630000      -0.06840000      -0.68760000
H        2.48650000      -0.42600000      -2.40190000
H        1.99300000       1.14580000      -1.75130000
H       -0.59800000      -3.64190000      -1.16460000
H       -1.35440000      -2.04970000      -0.69400000
H        0.10760000      -2.62280000      -3.40740000
