12
Properties=species:S:1:pos:R:3 gdb_4616=T pbc="F F F"
O       -0.03840000       1.41330000       0.00880000
C       -0.00810000       0.04870000       0.00110000
C       -1.16650000      -0.66830000       0.00410000
N       -1.09060000      -2.02440000      -0.00380000
C        0.10880000      -2.77100000      -0.01490000
O        0.06640000      -3.98210000      -0.02180000
N        1.27440000      -2.01180000      -0.01800000
C        1.19580000      -0.71250000      -0.01040000
H        0.86380000       1.74920000       0.00420000
H       -2.14870000      -0.21260000       0.01240000
H       -1.93270000      -2.58230000      -0.00180000
H        2.14600000      -0.16780000      -0.01320000
