15
Properties=species:S:1:pos:R:3 gdb_25243=T pbc="F F F"
N       -0.11960000       1.31950000       0.08400000
C       -0.05390000       0.04840000       0.00050000
N        1.06450000      -0.79650000      -0.13430000
C        0.74570000      -2.23170000      -0.01700000
C       -0.75240000      -2.19680000      -0.00150000
C       -1.15800000      -0.90320000       0.00890000
O       -2.50080000      -0.79250000       0.01000000
C       -2.96190000      -2.07880000      -0.00000000
C       -1.93980000      -2.98700000      -0.01180000
H        0.81040000       1.74000000       0.05300000
H        1.94910000      -0.46710000       0.21810000
H        1.15590000      -2.79580000      -0.86470000
H        1.16620000      -2.66680000       0.90070000
H       -4.03460000      -2.18300000       0.00640000
H       -2.04750000      -4.06020000      -0.02090000
