19
Properties=species:S:1:pos:R:3 gdb_93376=T pbc="F F F"
C       -0.24110000       1.47940000       0.03550000
C        0.04820000      -0.01550000       0.03770000
O        0.76900000      -0.30420000      -1.15740000
C        0.96380000      -1.68660000      -1.37730000
C        1.58390000      -2.45320000      -0.20530000
O        1.89710000      -3.61580000      -0.33670000
C        1.68010000      -1.72960000       1.08830000
C        2.34450000      -0.35400000       1.16720000
C        0.85840000      -0.45770000       1.24760000
H        0.69290000       2.04840000       0.04390000
H       -0.80640000       1.75300000      -0.85910000
H       -0.82580000       1.75780000       0.91730000
H       -0.90640000      -0.57090000       0.02510000
H        0.01030000      -2.19070000      -1.61230000
H        1.61020000      -1.78730000      -2.25330000
H        1.81730000      -2.38350000       1.94200000
H        2.90780000      -0.15780000       2.07180000
H        2.77240000       0.05200000       0.25890000
H        0.37850000      -0.30750000       2.21000000
