18
Properties=species:S:1:pos:R:3 gdb_27257=T pbc="F F F"
N        0.12830000       1.38560000       0.12850000
C       -0.05600000       0.01040000       0.02660000
C       -1.13900000      -0.81100000       0.02150000
C       -2.64000000      -0.80360000       0.04290000
C       -2.97140000      -2.25960000      -0.41290000
C       -1.75070000      -3.14360000      -0.01020000
C       -0.62420000      -2.14990000      -0.01360000
C        0.72360000      -2.06400000      -0.03340000
O        1.08660000      -0.72620000      -0.00780000
H        0.96640000       1.69590000      -0.34800000
H       -0.67500000       1.90530000      -0.19870000
H       -3.03170000      -0.61390000       1.05190000
H       -3.10180000      -0.06060000      -0.61700000
H       -3.91270000      -2.62740000       0.00440000
H       -3.07170000      -2.27270000      -1.50340000
H       -1.89320000      -3.56630000       0.99300000
H       -1.60960000      -3.98710000      -0.69240000
H        1.54460000      -2.75840000      -0.07150000
