21
Properties=species:S:1:pos:R:3 gdb_95845=T pbc="F F F"
C        0.01780000       1.54560000       0.05370000
C        0.02470000       0.02940000      -0.06730000
C        0.77280000      -0.47870000      -1.30460000
C        0.86740000      -2.01100000      -1.29390000
C        1.45990000      -2.49160000       0.03580000
C        0.68570000      -1.88580000       1.22430000
O        0.63700000      -0.46640000       1.12920000
C       -0.65360000      -2.47930000       1.36890000
C       -1.74320000      -2.97310000       1.49100000
H        1.04110000       1.92970000       0.11140000
H       -0.47430000       1.99660000      -0.81350000
H       -0.51530000       1.85410000       0.95690000
H       -1.01350000      -0.33800000      -0.10710000
H        0.26360000      -0.12710000      -2.20930000
H        1.78050000      -0.04240000      -1.30780000
H       -0.13350000      -2.44190000      -1.42120000
H        1.47560000      -2.36750000      -2.13170000
H        1.45030000      -3.58360000       0.10840000
H        2.50130000      -2.15980000       0.12180000
H        1.24070000      -2.07820000       2.14970000
H       -2.70550000      -3.40680000       1.60970000
