18
Properties=species:S:1:pos:R:3 gdb_92916=T pbc="F F F"
C        0.05750000       1.56480000       0.08750000
C        0.01070000       0.05240000      -0.03710000
C        0.73780000      -0.50290000      -1.25600000
C        0.71940000      -2.04530000      -1.19420000
N        1.14960000      -2.54660000       0.12200000
C        1.06840000      -1.75200000       1.10510000
O        0.60540000      -0.48610000       1.16750000
C       -0.59870000      -2.58340000      -1.54040000
C       -1.68930000      -2.99670000      -1.83100000
H        1.09230000       1.92030000       0.10540000
H       -0.45580000       2.02760000      -0.76060000
H       -0.43390000       1.88780000       1.00900000
H       -1.03150000      -0.29170000      -0.05890000
H        0.26710000      -0.14220000      -2.17460000
H        1.77870000      -0.16000000      -1.24760000
H        1.44040000      -2.43530000      -1.92340000
H        1.41690000      -2.06520000       2.08820000
H       -2.64630000      -3.38080000      -2.08510000
