15
Properties=species:S:1:pos:R:3 gdb_30529=T pbc="F F F"
N       -0.16160000       1.51130000       0.15590000
C        0.06730000       0.15970000      -0.00270000
N       -0.88910000      -0.73230000       0.00320000
H       -1.86370000      -0.41580000       0.02240000
C       -0.87710000      -2.10380000      -0.00480000
C       -2.14540000      -2.74680000      -0.02520000
O       -3.27400000      -2.27870000      -0.03620000
O       -1.87450000      -4.11770000      -0.02630000
C       -0.50900000      -4.27880000      -0.00650000
C        0.15130000      -3.09590000       0.00840000
H        0.50390000       2.11020000      -0.31230000
H       -1.11320000       1.82340000       0.01250000
H        1.09410000      -0.17710000      -0.03530000
H       -0.16120000      -5.29850000      -0.00600000
H        1.22220000      -2.96560000       0.02730000
