14
Properties=species:S:1:pos:R:3 gdb_20916=T pbc="F F F"
C       -0.09890000       1.59540000      -0.11030000
C        0.08970000       0.08080000      -0.04150000
N        0.75610000      -0.45570000      -1.21450000
N        0.14640000      -0.47140000      -2.45360000
C        1.03370000      -0.99690000      -3.21620000
O        2.18930000      -1.33520000      -2.60050000
C        2.02110000      -0.97580000      -1.25450000
O        2.84470000      -1.12520000      -0.39680000
H        0.86620000       2.10680000      -0.16540000
H       -0.68960000       1.87050000      -0.98800000
H       -0.62450000       1.94590000       0.78270000
H        0.71960000      -0.20370000       0.80510000
H       -0.87480000      -0.42630000       0.06410000
H        0.93960000      -1.18810000      -4.27270000
