23
Properties=species:S:1:pos:R:3 gdb_88966=T pbc="F F F"
C       -0.88630000       0.63530000       0.55640000
C        0.30060000      -0.16470000       0.08420000
O        1.46110000       0.56350000      -0.33160000
C        1.58070000      -0.29910000       0.80550000
C        1.92060000       0.34520000       2.13280000
C        1.90670000      -0.64170000       3.29270000
C        0.55470000      -1.25500000       3.60860000
C        3.13640000      -1.49920000       3.49440000
C        2.83750000      -0.36670000       4.44880000
H       -0.59300000       1.44060000       1.23270000
H       -1.39820000       1.08630000      -0.30030000
H       -1.60430000      -0.01210000       1.07150000
H        0.04170000      -0.98360000      -0.59190000
H        2.15800000      -1.20490000       0.60240000
H        2.92240000       0.78370000       2.04230000
H        1.23850000       1.17790000       2.33560000
H        0.15850000      -1.81640000       2.75520000
H        0.62230000      -1.94400000       4.45620000
H       -0.17870000      -0.48170000       3.86670000
H        3.00200000      -2.51570000       3.84910000
H        3.96780000      -1.37820000       2.80750000
H        3.46560000       0.51690000       4.40500000
H        2.49650000      -0.61880000       5.44760000
