17
Properties=species:S:1:pos:R:3 gdb_50435=T pbc="F F F"
N       -0.02090000       1.30960000       0.16710000
C        0.04850000       0.05410000       0.01460000
C        1.32290000      -0.76720000      -0.10000000
C        1.16880000      -2.01010000      -0.93030000
C       -0.01320000      -2.44520000      -1.35160000
C       -1.30210000      -1.75600000      -1.01900000
N       -1.14340000      -0.71630000      -0.00000000
C       -2.18620000      -0.49290000       0.88760000
O       -2.20720000       0.28970000       1.79990000
H        0.91710000       1.71090000       0.21620000
H        2.11710000      -0.13190000      -0.50930000
H        1.64640000      -1.03420000       0.91790000
H        2.07740000      -2.54650000      -1.18860000
H       -0.09560000      -3.32890000      -1.97720000
H       -1.73760000      -1.32830000      -1.93680000
H       -2.02990000      -2.48790000      -0.64980000
H       -3.02550000      -1.18570000       0.67070000
