19
Properties=species:S:1:pos:R:3 gdb_87792=T pbc="F F F"
O        0.10320000       1.40320000       0.40860000
C        0.07020000       0.02450000       0.18560000
C       -0.63820000      -0.89520000       1.17640000
C       -1.25620000      -0.55820000      -0.14590000
C       -2.54920000       0.17690000      -0.47040000
C       -2.65620000      -0.86890000      -1.57830000
C       -3.82730000      -1.64250000      -2.07760000
C       -3.03870000      -0.72820000      -3.01170000
O       -1.43760000      -1.52070000      -1.18590000
H        0.71160000       1.57460000       1.13550000
H        0.93140000      -0.39500000      -0.33560000
H       -0.23230000      -1.89250000       1.31080000
H       -1.07860000      -0.44490000       2.06100000
H       -3.32450000       0.12340000       0.29710000
H       -2.41820000       1.21030000      -0.79590000
H       -3.69520000      -2.71200000      -2.20130000
H       -4.82190000      -1.33890000      -1.76670000
H       -3.49360000       0.20090000      -3.34030000
H       -2.39370000      -1.20310000      -3.74310000
