19
Properties=species:S:1:pos:R:3 gdb_133747=T pbc="F F F"
C       -0.17770000       1.44610000       0.09820000
N        0.05500000       0.01290000      -0.02690000
C        0.74510000      -0.45410000      -1.23450000
C       -0.01680000      -0.01870000      -2.49530000
C        2.22630000      -0.02410000      -1.31430000
C        0.69350000      -1.99170000      -1.15230000
F       -0.55190000      -2.46890000      -1.20680000
F        1.38380000      -2.55980000      -2.15710000
F        1.24260000      -2.43030000      -0.00100000
H        0.71990000       2.07930000      -0.00400000
H       -0.90890000       1.77980000      -0.64360000
H       -0.60790000       1.63810000       1.08500000
H        0.55840000      -0.32420000       0.78580000
H        0.10470000       1.05330000      -2.66720000
H        0.37260000      -0.54330000      -3.37080000
H       -1.08100000      -0.24130000      -2.39480000
H        2.78620000      -0.40050000      -0.45330000
H        2.70370000      -0.40040000      -2.22230000
H        2.29800000       1.06630000      -1.32180000
