20
Properties=species:S:1:pos:R:3 gdb_95735=T pbc="F F F"
C       -0.04610000       1.57140000      -0.00780000
C        0.01540000       0.03520000      -0.00860000
C        0.67470000      -0.51440000      -1.28440000
C        0.98420000      -2.00950000      -1.15710000
C        1.96680000      -2.27190000      -0.00880000
C        1.58870000      -1.48870000       1.23460000
C        0.70730000      -0.47670000       1.22720000
C        2.22070000      -1.87630000       2.45780000
N        2.75280000      -2.21660000       3.42920000
H        0.96020000       2.00350000      -0.02110000
H       -0.58190000       1.93530000      -0.89010000
H       -0.56280000       1.94930000       0.88020000
H       -1.02340000      -0.33180000       0.02830000
H        0.02470000      -0.32510000      -2.14530000
H        1.60750000       0.03600000      -1.46830000
H        0.05270000      -2.55860000      -0.96960000
H        1.39720000      -2.40010000      -2.09240000
H        2.00390000      -3.33950000       0.23360000
H        2.98830000      -1.99810000      -0.30600000
H        0.47210000       0.02180000       2.16450000
