12
Properties=species:S:1:pos:R:3 gdb_9995=T pbc="F F F"
N       -0.23600000       1.35860000      -0.25160000
C       -0.10250000       0.11230000      -0.19760000
O       -1.19870000      -0.65730000       0.06700000
C       -1.00740000      -2.05760000       0.09540000
C       -2.15710000      -2.64190000       0.94800000
O       -2.53050000      -3.77350000       0.86740000
C       -0.95340000      -2.65030000      -1.24730000
N       -0.89280000      -3.09560000      -2.31060000
H        0.65710000       1.80750000      -0.44320000
H        0.81650000      -0.47130000      -0.33500000
H       -0.07430000      -2.31580000       0.62320000
H       -2.56910000      -1.89510000       1.65590000
