23
Properties=species:S:1:pos:R:3 gdb_115105=T pbc="F F F"
C       -0.17030000       1.34260000       0.03120000
O        0.10810000      -0.03510000      -0.04570000
C        0.72290000      -0.58640000       1.10860000
C       -0.24070000      -0.69400000       2.30230000
C        0.32420000      -1.56380000       3.39540000
C        1.36620000      -2.37580000       3.22020000
C        2.09380000      -2.52600000       1.90830000
C        1.29670000      -1.95760000       0.71780000
C        0.21380000      -2.93290000       0.23250000
H        0.72950000       1.92520000       0.28630000
H       -0.52180000       1.65590000      -0.95540000
H       -0.95170000       1.57940000       0.76810000
H        1.56680000       0.06090000       1.40630000
H       -0.46080000       0.30250000       2.70430000
H       -1.20260000      -1.09240000       1.94960000
H       -0.15950000      -1.50630000       4.36770000
H        1.73320000      -2.96650000       4.05650000
H        3.07350000      -2.03080000       1.98010000
H        2.31780000      -3.58530000       1.72740000
H        1.98620000      -1.78090000      -0.11590000
H       -0.44560000      -3.24410000       1.04890000
H       -0.39700000      -2.47250000      -0.54750000
H        0.67420000      -3.83650000      -0.18010000
