14
Properties=species:S:1:pos:R:3 gdb_28851=T pbc="F F F"
O       -0.01020000       1.37440000       0.00830000
C       -0.03740000       0.02600000       0.00140000
C       -1.26770000      -0.57620000       0.00550000
C       -1.53950000      -1.96540000      -0.00020000
C       -0.69260000      -3.03360000      -0.01040000
C        0.75910000      -3.04350000      -0.01840000
O        1.40810000      -4.08520000      -0.02730000
C        1.53730000      -1.76800000      -0.01690000
N        1.21450000      -0.52230000      -0.00880000
H        0.92540000       1.62100000       0.00410000
H       -2.11630000       0.09930000       0.01380000
H       -2.59980000      -2.20720000       0.00460000
H       -1.12260000      -4.03090000      -0.01310000
H        2.60940000      -1.97870000      -0.02430000
