16
Properties=species:S:1:pos:R:3 gdb_91732=T pbc="F F F"
O        0.12270000       1.40320000       0.13140000
C        0.01120000       0.00800000       0.02240000
C       -1.44160000      -0.56230000      -0.12150000
C       -1.33300000      -1.28870000      -1.48320000
O        0.01930000      -1.80710000      -1.44050000
C        0.63710000      -0.56460000      -1.27440000
O        0.11570000       0.24760000      -2.36690000
C       -1.17070000      -0.22330000      -2.54970000
N       -2.01210000       0.17770000      -3.39270000
H       -0.05390000       1.77280000      -0.74280000
H        0.51410000      -0.41330000       0.89560000
H       -1.67800000      -1.27710000       0.66850000
H       -2.18610000       0.23560000      -0.11420000
H       -2.05070000      -2.07180000      -1.70680000
H        1.72030000      -0.62020000      -1.35430000
H       -1.63110000       0.92960000      -3.96980000
