23
Properties=species:S:1:pos:R:3 gdb_107278=T pbc="F F F"
C        0.11970000       1.51320000      -0.20500000
C       -0.10660000       0.01520000       0.04310000
C        0.63230000      -0.49520000       1.25150000
C        2.07030000      -0.93310000       1.19720000
C        1.03330000      -1.92570000       1.65350000
C        0.57240000      -1.66880000       3.10430000
C        1.59160000      -1.11640000       4.14830000
C        1.19610000       0.34550000       3.75240000
C        0.18040000      -0.21610000       2.71150000
H        1.17940000       1.72560000      -0.38050000
H       -0.44510000       1.86170000      -1.07540000
H       -0.19820000       2.10780000       0.65840000
H       -1.18200000      -0.17530000       0.16280000
H        0.20850000      -0.55570000      -0.83980000
H        2.44540000      -1.10960000       0.19280000
H        2.82590000      -0.54400000       1.87270000
H        0.87900000      -2.85410000       1.11390000
H       -0.17780000      -2.37240000       3.46630000
H        1.33110000      -1.36900000       5.17920000
H        2.63650000      -1.39440000       3.98640000
H        0.71670000       0.89700000       4.56510000
H        1.99700000       0.97040000       3.34800000
H       -0.85310000       0.12570000       2.78970000
