22
Properties=species:S:1:pos:R:3 gdb_10767=T pbc="F F F"
C        0.07380000       1.44850000       0.21080000
O       -0.00250000       0.04950000       0.06850000
C       -1.30230000      -0.54550000      -0.09880000
C       -2.19590000      -0.27080000       1.12370000
C       -1.97130000      -0.02950000      -1.38090000
C       -0.97920000      -2.03690000      -0.13970000
C       -1.93810000      -3.08510000      -0.64080000
C       -0.66270000      -2.79980000      -1.39740000
H        1.13480000       1.68770000       0.32430000
H       -0.30530000       1.99020000      -0.66750000
H       -0.45650000       1.81930000       1.09960000
H       -2.45970000       0.78720000       1.21110000
H       -3.12670000      -0.83930000       1.04200000
H       -1.68650000      -0.57730000       2.04230000
H       -1.28370000      -0.09390000      -2.22800000
H       -2.87200000      -0.60340000      -1.61560000
H       -2.27870000       1.01410000      -1.27110000
H       -0.39250000      -2.32170000       0.72930000
H       -2.01880000      -4.01110000      -0.08200000
H       -2.87100000      -2.76540000      -1.09310000
H       -0.74990000      -2.29160000      -2.35060000
H        0.13820000      -3.52990000      -1.36030000
