16
Properties=species:S:1:pos:R:3 gdb_74457=T pbc="F F F"
C       -0.02840000       1.47120000       0.08130000
C       -0.01250000      -0.01290000      -0.00800000
C       -0.08280000      -0.86080000      -1.03740000
C        0.00670000      -2.22430000      -0.31520000
C       -1.01660000      -2.03040000       0.85330000
C        0.10210000      -1.00000000       1.17900000
O        1.07220000      -1.97760000       0.66330000
C        0.12020000      -3.44530000      -1.08610000
N        0.17750000      -4.41490000      -1.71150000
H        0.89210000       1.84710000       0.54490000
H       -0.12590000       1.93020000      -0.90570000
H       -0.85980000       1.82360000       0.70470000
H       -0.16740000      -0.70200000      -2.10140000
H       -2.01610000      -1.67240000       0.60390000
H       -1.03000000      -2.87750000       1.54160000
H        0.32070000      -0.63430000       2.18050000
