15
Properties=species:S:1:pos:R:3 gdb_64634=T pbc="F F F"
C       -0.03220000       1.54560000       0.01880000
C        0.01110000       0.00840000       0.00690000
N        0.79500000      -0.48980000      -1.15250000
C        1.74840000      -1.17790000      -0.65700000
N        1.78730000      -1.27430000       0.72530000
C        0.73370000      -0.53860000       1.26370000
N        0.39690000      -0.29870000       2.45780000
C       -1.34980000      -0.54360000      -0.07060000
N       -2.42040000      -0.97200000      -0.13430000
H        0.98900000       1.93440000       0.03100000
H       -0.53990000       1.91010000      -0.87580000
H       -0.55650000       1.88810000       0.91320000
H        2.51100000      -1.67250000      -1.24960000
H        2.48670000      -1.76050000       1.26130000
H        1.01330000      -0.73990000       3.14100000
