16
Properties=species:S:1:pos:R:3 gdb_31754=T pbc="F F F"
C       -0.05890000       1.39860000       0.00900000
O       -0.02170000      -0.02710000       0.00440000
C       -1.20640000      -0.65310000       0.01190000
C       -1.41070000      -1.99380000       0.00920000
O       -2.79590000      -2.17610000       0.01980000
C       -3.28980000      -0.93020000       0.02780000
O       -4.60370000      -0.76130000       0.03900000
C       -5.41310000      -1.94070000       0.04160000
N       -2.41460000       0.02620000       0.02390000
H        0.98400000       1.71880000       0.00140000
H       -0.57640000       1.78500000      -0.87440000
H       -0.56180000       1.77960000       0.90300000
H       -0.79840000      -2.87440000       0.00150000
H       -5.23130000      -2.54250000      -0.85360000
H       -5.21680000      -2.54840000       0.92990000
H       -6.44320000      -1.58580000       0.05110000
