20
Properties=species:S:1:pos:R:3 gdb_32679=T pbc="F F F"
C        0.08210000       1.61570000      -0.01710000
C       -0.20130000       0.12050000       0.14900000
C        0.67840000      -0.52600000       1.21840000
C        0.65550000      -2.10700000       1.29160000
N        2.08470000      -2.06070000       0.95170000
C        3.31090000      -2.63700000       0.77680000
C        4.18850000      -1.57720000       0.59620000
C        3.47280000      -0.33940000       0.68640000
C        2.16290000      -0.70310000       0.90930000
H        1.12300000       1.78310000      -0.31260000
H       -0.56000000       2.05720000      -0.78510000
H       -0.09260000       2.15960000       0.91790000
H       -1.25570000      -0.03160000       0.41490000
H       -0.03810000      -0.39470000      -0.80570000
H        0.47990000      -0.06520000       2.19330000
H        0.44770000      -2.53010000       2.27890000
H        0.03390000      -2.60170000       0.53860000
H        3.47180000      -3.70250000       0.77400000
H        5.24730000      -1.67920000       0.40720000
H        3.89010000       0.65140000       0.60040000
