18
Properties=species:S:1:pos:R:3 gdb_38167=T pbc="F F F"
C        0.18250000       1.50370000       0.03620000
C        1.37600000       0.56760000      -0.03450000
N        2.20830000       0.36070000       1.11390000
C        1.79250000      -0.41830000       2.02200000
O        0.62460000      -1.10040000       2.12890000
C       -0.36340000      -0.91410000       1.11680000
C       -0.55160000      -2.04330000       0.06790000
C       -0.64290000      -0.94690000      -1.03890000
C       -0.02050000       0.02290000      -0.03220000
H       -0.01110000       2.00630000       0.97940000
H       -0.03690000       2.09520000      -0.84720000
H        1.93500000       0.57750000      -0.96610000
H        2.40960000      -0.62670000       2.89350000
H       -1.29480000      -0.66930000       1.63940000
H        0.35950000      -2.63930000      -0.02080000
H       -1.40750000      -2.70640000       0.20280000
H       -0.09290000      -1.12610000      -1.96570000
H       -1.67820000      -0.69360000      -1.28770000
