17
Properties=species:S:1:pos:R:3 gdb_24305=T pbc="F F F"
C       -0.10700000       1.52700000      -0.14580000
C        1.44300000       1.69830000       0.01990000
C        2.07450000       2.22300000       1.36330000
C        2.46760000       0.93880000       2.21360000
C        1.60740000      -0.12200000       1.55860000
C        1.35510000       0.23020000       0.27780000
N       -0.00310000      -0.02810000      -0.01340000
C       -0.40660000      -0.72920000       1.13490000
N        0.52470000      -0.84650000       2.05610000
H       -0.69880000       1.93050000       0.67610000
H       -0.52600000       1.80620000      -1.11200000
H        1.93720000       2.08060000      -0.87530000
H        2.93880000       2.86650000       1.17340000
H        1.34810000       2.82920000       1.91600000
H        3.54210000       0.73840000       2.14630000
H        2.22550000       1.05900000       3.27190000
H       -1.37950000      -1.20010000       1.20080000
