21
Properties=species:S:1:pos:R:3 gdb_99261=T pbc="F F F"
C        0.03200000       1.53380000       0.01430000
C       -0.01020000       0.00840000       0.08840000
O        0.55430000      -0.46810000       1.31040000
C       -1.42690000      -0.54330000      -0.11780000
C       -1.46840000      -2.07200000      -0.08770000
C       -2.85950000      -2.65140000       0.03370000
O       -3.81010000      -2.02480000       0.45690000
C       -3.06470000      -4.10390000      -0.37910000
O       -4.36460000      -4.53300000      -0.10890000
H        1.04930000       1.89470000       0.18740000
H       -0.30370000       1.89290000      -0.96380000
H       -0.62480000       1.97740000       0.77330000
H        0.64940000      -0.40360000      -0.68660000
H        0.07000000      -0.05450000       2.03440000
H       -2.08810000      -0.15500000       0.66640000
H       -1.83020000      -0.17270000      -1.06760000
H       -0.96880000      -2.50940000      -0.96150000
H       -0.89550000      -2.42360000       0.78230000
H       -2.82650000      -4.18000000      -1.45480000
H       -2.32030000      -4.72740000       0.14250000
H       -4.82080000      -3.74280000       0.22410000
