21
Properties=species:S:1:pos:R:3 gdb_106290=T pbc="F F F"
C        0.23500000       1.54480000      -0.11060000
C       -0.01680000       0.03910000       0.03370000
C        0.63060000      -0.54220000       1.26380000
C        0.86010000      -2.06580000       1.51580000
C        1.98710000      -1.41500000       2.38070000
C        3.27740000      -2.08640000       2.75770000
O        2.09410000      -0.38460000       1.33570000
C        1.13860000      -0.67100000       3.44090000
C        0.21760000      -0.07720000       2.68380000
H        1.30830000       1.75040000      -0.14100000
H       -0.21730000       1.93090000      -1.02870000
H       -0.18610000       2.10260000       0.73230000
H       -1.09390000      -0.16730000       0.07970000
H        0.36750000      -0.48810000      -0.84670000
H        0.07820000      -2.64220000       2.01510000
H        1.25350000      -2.58090000       0.63420000
H        3.74500000      -2.54710000       1.88360000
H        3.97850000      -1.35970000       3.18040000
H        3.09790000      -2.86460000       3.50670000
H        1.28560000      -0.67800000       4.51160000
H       -0.62190000       0.55040000       2.94680000
