17
Properties=species:S:1:pos:R:3 gdb_92520=T pbc="F F F"
C        0.22940000       1.48900000      -0.17240000
C       -0.03240000      -0.00720000       0.01610000
O        0.38420000      -0.78370000      -1.10950000
C        1.52290000      -1.58340000      -0.81810000
C        2.88450000      -0.89060000      -1.01760000
O        3.01350000      -0.66810000       0.41220000
C        1.82990000      -1.46360000       0.68170000
C        0.71670000      -0.56860000       1.22900000
O        0.47850000      -0.33100000       2.38230000
H        1.30080000       1.69160000      -0.25220000
H       -0.26800000       1.84390000      -1.07860000
H       -0.16330000       2.03910000       0.68760000
H       -1.10680000      -0.17590000       0.16030000
H        1.38640000      -2.56440000      -1.27530000
H        3.68580000      -1.54060000      -1.38900000
H        2.85850000       0.04070000      -1.59130000
H        2.03330000      -2.34530000       1.29400000
