16
Properties=species:S:1:pos:R:3 gdb_45018=T pbc="F F F"
N       -0.07540000       1.23810000       0.39680000
C       -0.01700000       0.01490000       0.05020000
N        1.15940000      -0.71620000      -0.15690000
C        1.28610000      -1.92000000      -0.83150000
O        2.36050000      -2.46130000      -0.96170000
C       -0.00130000      -2.46060000      -1.44830000
N       -1.27010000      -2.02200000      -0.87970000
C       -1.41790000      -2.07450000       0.56470000
C       -1.27430000      -0.75740000      -0.13820000
H        0.85350000       1.65170000       0.49740000
H        2.03780000      -0.30320000       0.13150000
H        0.01680000      -2.17030000      -2.50660000
H        0.05380000      -3.55160000      -1.41790000
H       -2.39650000      -2.37740000       0.92470000
H       -0.57880000      -2.41180000       1.17010000
H       -2.14440000      -0.12600000      -0.27820000
