19
Properties=species:S:1:pos:R:3 gdb_68885=T pbc="F F F"
C        0.12290000       1.54810000      -0.05630000
C       -0.06610000       0.07830000       0.13280000
O        1.01200000      -0.79830000      -0.25240000
C        0.51560000      -0.89480000       1.09240000
C        1.45150000      -0.75930000       2.24570000
C       -0.73560000      -1.77540000       0.99370000
O       -1.71280000      -1.43190000       1.99730000
C       -2.37850000      -0.51160000       1.10320000
C       -1.34670000      -0.74930000      -0.01820000
H        1.09950000       1.86420000       0.31990000
H        0.06920000       1.81140000      -1.11880000
H       -0.65370000       2.11250000       0.46990000
H        2.08590000       0.12470000       2.13730000
H        0.87960000      -0.67610000       3.17480000
H        2.10290000      -1.63700000       2.32300000
H       -0.63010000      -2.85250000       0.84340000
H       -3.38970000      -0.86010000       0.86190000
H       -2.44130000       0.50300000       1.51610000
H       -1.70160000      -0.98500000      -1.02090000
