19
Properties=species:S:1:pos:R:3 gdb_67476=T pbc="F F F"
O       -0.08850000       1.41980000      -0.15030000
C       -0.00440000       0.05100000      -0.00780000
C       -1.20050000      -0.84320000      -0.09450000
C       -1.35870000      -1.85780000      -1.21650000
C       -0.04180000      -2.54510000      -1.63360000
C        1.16380000      -1.58890000      -1.64050000
C        1.22350000      -0.82450000      -0.32350000
O        0.92100000      -1.68890000       0.81990000
C       -0.25930000      -0.93620000       1.10570000
H        0.61140000       1.82450000       0.37550000
H       -2.11110000      -0.31350000       0.18230000
H       -2.09610000      -2.61990000      -0.93830000
H       -1.78050000      -1.32370000      -2.07880000
H        0.17790000      -3.35420000      -0.93250000
H       -0.16450000      -3.00030000      -2.62170000
H        2.08690000      -2.15710000      -1.80010000
H        1.09330000      -0.85640000      -2.45590000
H        2.18010000      -0.31340000      -0.16190000
H       -0.57190000      -0.85460000       2.14030000
