21
Properties=species:S:1:pos:R:3 gdb_102459=T pbc="F F F"
C       -0.23570000       1.55100000      -0.57670000
C       -0.26240000       0.02850000      -0.47600000
C       -1.45970000      -0.51540000       0.28770000
O       -2.23150000       0.20900000       0.87890000
C       -1.66080000      -2.02860000       0.25520000
C       -2.24560000      -2.50790000       1.58450000
O       -2.45880000      -3.92040000       1.50490000
C       -2.58930000      -2.38990000      -0.93730000
O       -2.56500000      -3.76090000      -1.25130000
H        0.66280000       1.88870000      -1.10020000
H       -1.11000000       1.92280000      -1.11780000
H       -0.25250000       2.00540000       0.41680000
H       -0.23870000      -0.44490000      -1.46670000
H        0.63590000      -0.34990000       0.03410000
H       -0.70050000      -2.52390000       0.07040000
H       -1.55810000      -2.27100000       2.40910000
H       -3.18470000      -1.97290000       1.77000000
H       -2.98760000      -4.19260000       2.26020000
H       -3.60530000      -2.03170000      -0.70080000
H       -2.26420000      -1.85890000      -1.83940000
H       -2.71580000      -4.22620000      -0.41680000
