20
Properties=species:S:1:pos:R:3 gdb_107137=T pbc="F F F"
C        0.03130000       1.35360000       0.28680000
O        0.00200000       0.01080000      -0.17240000
C       -1.25260000      -0.55130000      -0.11310000
C       -1.88390000      -1.07490000       1.14780000
C       -1.59700000      -2.01590000      -0.01210000
C       -2.60310000      -1.83940000      -1.19820000
C       -2.85680000      -2.87310000      -2.24850000
N       -3.62080000      -0.82920000      -0.79900000
C       -2.27940000      -0.40200000      -1.28580000
H        1.06310000       1.69990000       0.19410000
H       -0.61930000       2.00320000      -0.31570000
H       -0.28420000       1.42340000       1.33660000
H       -1.17410000      -1.18400000       1.96270000
H       -2.89960000      -0.83050000       1.43040000
H       -0.93140000      -2.86440000       0.07830000
H       -3.46920000      -3.69520000      -1.85870000
H       -3.38040000      -2.43890000      -3.10730000
H       -1.91600000      -3.30190000      -2.61090000
H       -4.26620000      -0.73160000      -1.58380000
H       -2.15780000       0.24000000      -2.14970000
