17
Properties=species:S:1:pos:R:3 gdb_23302=T pbc="F F F"
C       -0.01270000       1.46900000       0.09330000
C       -0.01250000      -0.01170000      -0.06190000
C        0.02980000      -0.75740000      -1.18420000
C        0.06450000      -2.16760000      -0.81080000
N        0.01970000      -3.24060000      -1.50880000
O       -0.04510000      -2.94320000      -2.88290000
C        0.09290000      -2.19390000       0.68310000
C        1.21310000      -1.50020000       1.38840000
N       -0.06650000      -0.79690000       1.13960000
H        0.83770000       1.79330000       0.70560000
H        0.04130000       1.97060000      -0.87500000
H       -0.91820000       1.79750000       0.61530000
H        0.04770000      -0.39350000      -2.19980000
H       -0.09170000      -3.82050000      -3.27640000
H       -0.47170000      -2.95410000       1.21060000
H        1.41140000      -1.74660000       2.42720000
H        2.07280000      -1.18850000       0.80210000
