16
Properties=species:S:1:pos:R:3 gdb_8468=T pbc="F F F"
C       -0.14710000       1.48130000       0.08230000
C        0.03650000       0.00450000       0.05680000
C        1.19020000      -0.80570000      -0.41880000
C        0.67350000      -0.99910000       1.01330000
N        1.52580000      -0.81160000       2.12730000
C       -0.64850000      -1.70040000       0.92450000
N       -1.18990000      -2.65020000       1.53860000
O       -1.16180000      -0.83290000      -0.03870000
H        0.79720000       1.96480000       0.34770000
H       -0.46170000       1.85820000      -0.89690000
H       -0.90440000       1.76490000       0.81920000
H        1.04750000      -1.57560000      -1.17070000
H        2.14520000      -0.28920000      -0.44600000
H        0.98650000      -0.74520000       2.98490000
H        2.16150000      -1.59630000       2.23400000
H       -2.15390000      -2.78980000       1.23080000
