13
Properties=species:S:1:pos:R:3 gdb_46226=T pbc="F F F"
N        0.01240000       1.20720000      -0.23990000
C        0.02040000      -0.01610000       0.00310000
O        1.00720000      -0.87010000       0.47430000
C        0.10800000      -2.02240000       0.50180000
C       -0.98710000      -1.13210000      -0.08370000
O       -2.33320000      -1.08440000       0.30140000
C       -2.04970000      -1.41130000      -1.06620000
C       -2.43300000      -0.44740000      -2.07330000
N       -2.75320000       0.27460000      -2.91610000
H        0.91040000       1.65250000      -0.04840000
H        0.48050000      -2.83460000      -0.12580000
H       -0.07640000      -2.36330000       1.52320000
H       -2.24250000      -2.44750000      -1.33880000
