19
Properties=species:S:1:pos:R:3 gdb_117498=T pbc="F F F"
C       -0.04800000       1.47590000       0.04990000
C       -0.00720000       0.02190000      -0.00940000
C        0.03470000      -1.17920000      -0.06290000
C        0.05610000      -2.64530000      -0.11650000
C       -1.37550000      -3.22730000       0.03680000
C       -1.39470000      -4.74730000       0.13380000
O       -2.74370000      -5.13920000       0.33880000
C        0.71250000      -3.12250000      -1.34120000
C        1.24000000      -3.52710000      -2.34200000
H        0.52660000       1.85630000       0.90160000
H        0.37220000       1.92030000      -0.85900000
H       -1.07560000       1.84120000       0.15310000
H        0.64950000      -3.00740000       0.73750000
H       -1.82090000      -2.80470000       0.94240000
H       -1.98890000      -2.90680000      -0.81000000
H       -0.98240000      -5.18500000      -0.78650000
H       -0.75310000      -5.07440000       0.96980000
H       -2.78220000      -6.09970000       0.32160000
H        1.71280000      -3.87390000      -3.22730000
