16
Properties=species:S:1:pos:R:3 gdb_27315=T pbc="F F F"
C       -0.02120000       1.49460000       0.02770000
C        0.00310000      -0.00870000      -0.02480000
N       -0.02390000      -0.62260000      -1.17040000
C       -0.00100000      -2.01050000      -1.19310000
N       -0.02280000      -2.74970000      -2.24740000
C        0.05300000      -2.73870000       0.08070000
O        0.07290000      -4.07550000      -0.00560000
C        0.07920000      -2.04920000       1.23750000
N        0.05320000      -0.65720000       1.16880000
H        0.87230000       1.88720000       0.52600000
H       -0.05820000       1.88080000      -0.98970000
H       -0.89640000       1.85660000       0.57870000
H       -0.06000000      -2.18260000      -3.09250000
H        0.04380000      -4.23120000      -0.97630000
H        0.11890000      -2.49900000       2.21890000
H        0.07220000      -0.12370000       2.02200000
