22
Properties=species:S:1:pos:R:3 gdb_117557=T pbc="F F F"
C       -0.01260000       1.53720000      -0.03890000
C       -0.01560000       0.00620000       0.00580000
C        0.69710000      -0.53990000       1.24680000
C        0.78640000      -2.07900000       1.30930000
C        1.58240000      -2.49690000       2.46570000
C        2.24580000      -2.82560000       3.41220000
N       -0.55940000      -2.67020000       1.39510000
C       -1.13910000      -3.15540000       0.14270000
C       -0.64010000      -4.10980000       1.16690000
H        1.00910000       1.93270000      -0.05510000
H       -0.52880000       1.91040000      -0.92890000
H       -0.51510000       1.95830000       0.83880000
H       -1.04880000      -0.35650000      -0.01330000
H        0.46930000      -0.38660000      -0.89840000
H        1.71910000      -0.14440000       1.28830000
H        0.18670000      -0.19700000       2.15360000
H        1.30760000      -2.43350000       0.39850000
H        2.83050000      -3.12050000       4.24810000
H       -2.20360000      -2.97830000       0.01810000
H       -0.55140000      -3.05020000      -0.76770000
H        0.28280000      -4.64260000       0.94590000
H       -1.33120000      -4.64750000       1.80910000
