17
Properties=species:S:1:pos:R:3 gdb_28048=T pbc="F F F"
C       -0.00650000       1.53580000       0.02490000
C       -0.07610000       0.05090000       0.01910000
C       -1.10210000      -0.83080000      -0.12300000
C       -0.52310000      -2.14380000      -0.03800000
N       -1.25150000      -3.32920000      -0.13730000
C       -0.75050000      -4.60000000      -0.06330000
N        0.48930000      -4.85020000       0.11190000
C        0.81560000      -1.96370000       0.15000000
O        1.09080000      -0.62240000       0.18520000
H        0.64060000       1.91000000      -0.77650000
H       -1.00430000       1.95690000      -0.11650000
H        0.39490000       1.91480000       0.97170000
H       -2.14320000      -0.58520000      -0.27020000
H       -2.24250000      -3.23620000      -0.27710000
H       -1.54230000      -5.35060000      -0.17280000
H        0.64290000      -5.85500000       0.13620000
H        1.63610000      -2.64360000       0.26730000
