19
Properties=species:S:1:pos:R:3 gdb_91963=T pbc="F F F"
O        0.08430000       1.42800000      -0.10210000
C        0.02580000       0.01830000       0.00640000
C        0.61940000      -0.49270000       1.34860000
C       -0.57450000      -0.54220000       2.28680000
N       -1.41480000       0.67730000       2.19860000
C       -1.81760000      -0.55670000       1.47440000
C       -1.42410000      -0.49950000       0.02700000
C       -2.34520000      -0.25720000      -1.10050000
N       -1.86920000      -1.62650000      -0.80990000
H       -0.42640000       1.75700000       0.65440000
H        0.57280000      -0.37380000      -0.85730000
H        1.02870000      -1.50330000       1.23400000
H        1.42050000       0.16900000       1.68820000
H       -0.50770000      -1.05610000       3.23980000
H       -1.97170000       0.77690000       3.04280000
H       -2.71490000      -1.08800000       1.77000000
H       -3.40450000      -0.09620000      -0.91910000
H       -1.94740000       0.26740000      -1.96490000
H       -1.13510000      -1.88160000      -1.46720000
