14
Properties=species:S:1:pos:R:3 gdb_132847=T pbc="F F F"
F        0.06940000       0.00860000      -0.27450000
C       -0.07700000       1.31890000      -0.11180000
C       -1.22390000       1.91730000       0.19990000
N       -1.21400000       3.31100000       0.33710000
C       -0.10930000       4.13490000       0.17650000
N       -0.09940000       5.40510000       0.30020000
C        1.18260000       3.42810000      -0.17790000
N        2.24720000       4.10480000      -0.34450000
N        1.08620000       2.03980000      -0.29590000
H       -2.15080000       1.38970000       0.35150000
H       -2.08060000       3.76650000       0.57120000
H       -1.02760000       5.76070000       0.53930000
H        3.03990000       3.50380000      -0.57890000
H        1.92000000       1.52300000      -0.53020000
