20
Properties=species:S:1:pos:R:3 gdb_108248=T pbc="F F F"
C       -0.29100000       1.46210000      -0.03940000
C        0.06730000       0.00230000       0.02020000
C        1.23520000      -0.56590000      -0.81600000
N        1.73370000      -1.31980000       0.37650000
C        0.62470000      -0.81400000       1.23170000
C        1.12970000      -0.29250000       2.56290000
O        1.96190000      -1.25860000       3.18080000
C       -0.68660000      -1.60810000       1.12280000
O       -1.08930000      -0.86810000      -0.05390000
H        0.59710000       2.09010000       0.08090000
H       -0.74140000       1.69370000      -1.01140000
H       -1.01620000       1.72240000       0.73670000
H        0.90200000      -1.17710000      -1.66010000
H        1.96720000       0.17000000      -1.16830000
H        1.72230000      -2.32750000       0.25430000
H        1.67010000       0.65460000       2.40290000
H        0.30350000      -0.09250000       3.25280000
H        2.64090000      -1.45690000       2.52150000
H       -0.59380000      -2.68540000       0.93400000
H       -1.38990000      -1.45090000       1.95200000
