18
Properties=species:S:1:pos:R:3 gdb_127760=T pbc="F F F"
C       -0.02260000       1.46350000      -0.02200000
N       -0.02370000       0.02090000       0.08300000
N       -0.04190000      -0.73900000      -1.05360000
N       -0.04110000      -1.99900000      -0.70310000
C       -0.03180000      -2.05490000       0.65030000
C       -0.02250000      -0.78660000       1.16220000
C        0.03460000      -0.73140000       2.65320000
C       -0.25690000      -2.23610000       3.00430000
C        0.01620000      -3.10010000       1.72340000
H        0.87720000       1.88620000       0.43470000
H       -0.04040000       1.71000000      -1.08370000
H       -0.90450000       1.88960000       0.46540000
H        1.02380000      -0.41550000       3.00930000
H       -0.69690000      -0.05810000       3.11190000
H        0.32890000      -2.57100000       3.86340000
H       -1.31150000      -2.33050000       3.27800000
H       -0.72700000      -3.89390000       1.60540000
H        0.99790000      -3.58750000       1.76780000
