16
Properties=species:S:1:pos:R:3 gdb_85596=T pbc="F F F"
C       -0.09230000       1.45060000      -0.08020000
N        0.03980000       0.00280000      -0.06550000
C       -1.16140000      -0.79200000       0.12290000
C       -1.07030000      -2.20230000      -0.44800000
O       -2.03360000      -2.80680000      -0.82470000
O        0.15910000      -2.74930000      -0.51560000
C        1.25680000      -2.09040000       0.12780000
C        1.27220000      -0.57010000       0.02080000
O        2.32470000       0.04000000       0.03490000
H        0.89970000       1.87450000      -0.23120000
H       -0.75850000       1.76150000      -0.89170000
H       -0.49990000       1.82150000       0.86880000
H       -1.43810000      -0.87130000       1.18710000
H       -1.99970000      -0.30840000      -0.38300000
H        1.28140000      -2.37350000       1.18870000
H        2.16260000      -2.46850000      -0.34470000
