17
Properties=species:S:1:pos:R:3 gdb_77431=T pbc="F F F"
C        0.01640000       1.59430000       0.02260000
C       -0.03750000       0.09720000       0.09280000
C        1.18120000      -0.77890000      -0.36370000
O        2.39130000      -0.10670000      -0.44030000
C        0.62940000      -0.98260000       0.99770000
O        1.41330000      -0.70390000       2.10790000
C       -0.62620000      -1.85650000       0.97130000
C       -1.25620000      -0.76560000       0.05800000
O       -2.35910000      -0.62210000      -0.39190000
H        1.03870000       1.93690000      -0.15590000
H       -0.61080000       1.94030000      -0.80530000
H       -0.35620000       2.05950000       0.94030000
H        1.07100000      -1.50710000      -1.16410000
H        2.67970000       0.05490000       0.46960000
H        1.87310000      -1.51230000       2.36730000
H       -0.54050000      -2.87510000       0.57970000
H       -1.14350000      -1.87120000       1.93580000
