17
Properties=species:S:1:pos:R:3 gdb_28877=T pbc="F F F"
C       -0.05040000       1.52580000       0.04110000
C       -0.00710000       0.02180000       0.00960000
C        0.07150000      -0.65050000      -1.21230000
N        0.16280000       0.00730000      -2.44020000
C        0.11740000      -2.05790000      -1.16620000
O        0.19100000      -2.70780000      -2.36020000
N        0.09230000      -2.78000000      -0.06570000
C        0.01630000      -2.12520000       1.10410000
C       -0.03470000      -0.74520000       1.18200000
H        0.80030000       1.95770000      -0.49930000
H       -0.96120000       1.91610000      -0.43380000
H       -0.03080000       1.90040000       1.06680000
H       -0.34210000       0.88010000      -2.49410000
H       -0.03870000      -0.59360000      -3.22690000
H        0.20100000      -3.65010000      -2.14500000
H       -0.00380000      -2.74030000       1.99860000
H       -0.09440000      -0.25450000       2.14750000
