18
Properties=species:S:1:pos:R:3 gdb_56299=T pbc="F F F"
N       -0.11830000       1.32710000      -0.02740000
C        0.05620000      -0.02580000       0.01400000
O        1.15850000      -0.54010000       0.04270000
C       -1.23680000      -0.83420000       0.01470000
C       -0.96610000      -2.33060000      -0.00610000
O       -2.21900000      -2.98890000       0.00770000
C       -2.08330000      -4.39570000      -0.00760000
C       -3.39780000      -5.02460000       0.00840000
C       -4.46800000      -5.56890000       0.02120000
H        0.69770000       1.91530000       0.00940000
H       -1.02710000       1.75480000      -0.00550000
H       -1.82760000      -0.58080000       0.90340000
H       -1.84940000      -0.55660000      -0.85120000
H       -0.38860000      -2.60220000      -0.90260000
H       -0.35830000      -2.61990000       0.86380000
H       -1.52770000      -4.72090000      -0.90400000
H       -1.49820000      -4.73730000       0.86370000
H       -5.41700000      -6.04530000       0.03250000
