18
Properties=species:S:1:pos:R:3 gdb_9409=T pbc="F F F"
C       -0.03640000       1.37150000       0.08100000
O       -0.08420000      -0.03140000      -0.02090000
C        0.67280000      -0.52720000      -1.10220000
C        0.59690000      -2.04850000      -1.07440000
C        1.37830000      -2.67850000      -2.23850000
O        2.73550000      -2.32830000      -2.20310000
C        1.22370000      -4.18540000      -2.22100000
O        2.17950000      -4.92180000      -2.18240000
H        0.99250000       1.73560000       0.22960000
H       -0.44530000       1.86160000      -0.81720000
H       -0.64120000       1.65820000       0.94470000
H        0.27740000      -0.14350000      -2.06020000
H        1.72210000      -0.20380000      -1.02990000
H        1.00510000      -2.41100000      -0.12460000
H       -0.45480000      -2.35550000      -1.12440000
H        0.92040000      -2.33380000      -3.18620000
H        3.22170000      -3.16820000      -2.18770000
H        0.18540000      -4.57460000      -2.24360000
