16
Properties=species:S:1:pos:R:3 gdb_105165=T pbc="F F F"
O        0.11100000       1.35270000      -0.32030000
C        0.06930000       0.02480000       0.15270000
C       -1.34490000      -0.53800000       0.11210000
C       -1.89850000      -1.12040000      -1.17070000
C       -1.59080000      -2.05060000      -0.02850000
C       -0.46630000      -2.94230000      -0.09290000
N        0.43540000      -3.66500000      -0.14160000
C       -2.32920000       0.17110000       0.97350000
O       -2.07890000       1.18360000       1.58280000
H       -0.37340000       1.88220000       0.32510000
H        0.72600000      -0.56850000      -0.48950000
H        0.45290000      -0.05540000       1.18000000
H       -2.94500000      -0.96270000      -1.40770000
H       -1.22900000      -1.11960000      -2.02230000
H       -2.43670000      -2.45270000       0.52150000
H       -3.34380000      -0.28700000       1.01500000
