21
Properties=species:S:1:pos:R:3 gdb_117993=T pbc="F F F"
C       -0.09260000       1.63480000       0.01960000
C        0.02820000       0.10380000      -0.01980000
C        0.69900000      -0.41900000      -1.30030000
C       -0.05570000      -0.08080000      -2.58150000
O        0.59100000      -0.76660000      -3.64330000
C        0.78310000      -0.44230000       1.22290000
N        2.14520000       0.08990000       1.31270000
C       -0.00650000      -0.20680000       2.45360000
N       -0.59280000       0.00230000       3.42860000
H        0.88130000       2.11350000      -0.13040000
H       -0.75790000       1.99560000      -0.76870000
H       -0.50440000       1.97590000       0.97480000
H       -0.98440000      -0.31760000       0.03680000
H        1.72120000      -0.03490000      -1.36790000
H        0.77890000      -1.51210000      -1.25010000
H       -1.10960000      -0.39450000      -2.48860000
H       -0.05330000       1.00560000      -2.75670000
H        0.15640000      -0.52530000      -4.46640000
H        0.86780000      -1.52880000       1.10500000
H        2.12030000       1.06760000       1.58580000
H        2.66150000      -0.39670000       2.03870000
