17
Properties=species:S:1:pos:R:3 gdb_129907=T pbc="F F F"
N        0.22140000       1.32940000      -0.26920000
C        0.04500000      -0.03390000      -0.07710000
C       -1.06820000      -0.84390000       0.01130000
N       -0.65580000      -2.10930000       0.30230000
N        0.63410000      -2.14130000       0.40310000
N        1.08780000      -0.86650000       0.17150000
C        2.47120000      -0.51670000       0.24530000
C        3.48540000      -1.54610000      -0.14630000
C        3.26170000      -0.35290000      -1.03940000
H        1.04580000       1.56090000      -0.80960000
H       -0.59600000       1.77940000      -0.65680000
H       -2.10860000      -0.59320000      -0.11680000
H        2.70570000       0.14980000       1.07010000
H        4.39430000      -1.59320000       0.44110000
H        3.09790000      -2.50280000      -0.47080000
H        2.73360000      -0.52170000      -1.97120000
H        4.01450000       0.42660000      -1.07210000
