25
Properties=species:S:1:pos:R:3 gdb_118146=T pbc="F F F"
C       -0.07170000       1.61110000      -0.01930000
C        0.01180000       0.08570000       0.09360000
C       -1.36700000      -0.58360000       0.05320000
C       -1.35500000      -2.12630000       0.04770000
C       -0.73550000      -2.70850000       1.32550000
C       -2.77820000      -2.63530000      -0.19370000
C       -3.09540000      -4.14960000      -0.18150000
C       -4.09910000      -3.78400000       0.92890000
O       -3.66020000      -2.41050000       0.93870000
H        0.92160000       2.06990000       0.01340000
H       -0.54820000       1.91400000      -0.95850000
H       -0.66200000       2.03560000       0.80030000
H        0.63090000      -0.30880000      -0.72390000
H        0.53180000      -0.17550000       1.02260000
H       -1.97000000      -0.24040000       0.90420000
H       -1.89300000      -0.23760000      -0.84760000
H       -0.76210000      -2.45950000      -0.81890000
H       -0.68740000      -3.80120000       1.29450000
H        0.28600000      -2.34850000       1.47070000
H       -1.32930000      -2.42160000       2.19830000
H       -3.18290000      -2.13600000      -1.08700000
H       -3.52060000      -4.54940000      -1.10330000
H       -2.27370000      -4.79160000       0.13920000
H       -5.15600000      -3.87130000       0.64540000
H       -3.95330000      -4.26730000       1.90210000
