19
Properties=species:S:1:pos:R:3 gdb_39205=T pbc="F F F"
C       -0.22350000       1.39430000      -0.03070000
C        1.22080000       0.97530000       0.09060000
O        1.75590000       0.95490000       1.39030000
C        1.48780000      -0.32850000       1.96390000
C        0.17820000      -0.83630000       1.30450000
C        0.17240000      -2.27440000       0.84660000
C        0.07170000      -2.39120000      -0.47770000
C       -0.04120000      -1.05580000      -1.17870000
C        0.15330000      -0.06810000      -0.03270000
H       -0.69850000       1.81010000       0.85240000
H       -0.54520000       1.82880000      -0.97330000
H        1.93650000       1.19370000      -0.69750000
H        2.31560000      -1.02090000       1.74760000
H        1.41640000      -0.19850000       3.04750000
H       -0.68040000      -0.60980000       1.94980000
H        0.24410000      -3.10520000       1.54050000
H        0.05350000      -3.33090000      -1.01930000
H        0.70540000      -0.93630000      -1.97460000
H       -1.02340000      -0.94250000      -1.65900000
