16
Properties=species:S:1:pos:R:3 gdb_39022=T pbc="F F F"
C        0.07360000       1.57940000       0.05240000
O        1.52830000       1.41060000      -0.09890000
C        1.41110000       0.08110000       0.21150000
N        2.27790000      -0.71360000       0.64310000
C        1.69350000      -1.96040000       1.14980000
C        0.28080000      -1.82160000       1.73000000
O        0.00800000      -0.64660000       2.50150000
C       -0.65010000      -0.78600000       1.24090000
C       -0.09040000       0.03980000       0.11350000
H       -0.14570000       2.10870000       0.98270000
H       -0.35820000       2.09440000      -0.80720000
H        1.66900000      -2.73650000       0.37040000
H        2.35660000      -2.33970000       1.93550000
H       -0.13280000      -2.73920000       2.14920000
H       -1.72640000      -0.94160000       1.29890000
H       -0.44040000      -0.36030000      -0.84410000
