16
Properties=species:S:1:pos:R:3 gdb_11312=T pbc="F F F"
C       -0.38190000       1.46060000      -0.03510000
C        0.03630000      -0.00360000      -0.10990000
C        1.19320000      -0.29890000      -1.11430000
N        1.94380000      -1.32510000      -0.38350000
C        1.56650000      -1.20290000       0.93570000
C        2.36040000      -1.86070000       2.00470000
O        3.39590000      -2.44270000       1.78530000
N        0.51760000      -0.51020000       1.19500000
H        0.46670000       2.08940000       0.25300000
H       -0.75520000       1.80840000      -1.00400000
H       -1.17200000       1.59440000       0.70810000
H       -0.84180000      -0.60900000      -0.37860000
H        0.83690000      -0.66820000      -2.07910000
H        1.80300000       0.60000000      -1.29120000
H        2.91790000      -1.50360000      -0.57920000
H        1.92810000      -1.74920000       3.01700000
