13
Properties=species:S:1:pos:R:3 gdb_1075=T pbc="F F F"
O        0.30860000       1.05150000       0.73930000
C        0.02020000       0.07130000      -0.24500000
C       -1.38230000      -0.45520000      -0.15040000
C       -2.20880000      -0.36740000       0.92740000
O       -3.41030000      -0.95050000       0.66420000
C       -3.34650000      -1.42390000      -0.60660000
C       -2.13690000      -1.15010000      -1.15830000
H       -0.32360000       1.76850000       0.62000000
H        0.20690000       0.45080000      -1.26260000
H        0.74730000      -0.73200000      -0.07550000
H       -2.09170000       0.05520000       1.91050000
H       -4.23340000      -1.91820000      -0.96770000
H       -1.81290000      -1.40440000      -2.15600000
