18
Properties=species:S:1:pos:R:3 gdb_9928=T pbc="F F F"
C       -0.03700000       1.54790000       0.14010000
C        0.02450000       0.04560000      -0.02350000
C        0.69970000      -0.62640000      -1.20060000
C        1.35460000       0.13900000      -2.32990000
C        1.35170000      -0.69680000       0.16850000
O        2.52040000       0.07280000       0.29810000
C        1.35850000      -1.93710000       0.89870000
C        1.36510000      -2.95580000       1.53970000
H        0.92100000       2.01800000      -0.08940000
H       -0.79750000       1.98370000      -0.51690000
H       -0.30100000       1.81340000       1.16970000
H       -0.84080000      -0.48400000       0.36540000
H        0.23650000      -1.55870000      -1.51060000
H        1.92390000       0.99560000      -1.96800000
H        2.04670000      -0.50780000      -2.87880000
H        0.60040000       0.49830000      -3.03860000
H        2.63180000       0.27810000       1.23310000
H        1.37610000      -3.86290000       2.09140000
