16
Properties=species:S:1:pos:R:3 gdb_7964=T pbc="F F F"
O       -0.02000000       1.02530000      -0.80050000
C       -0.11940000      -0.14060000       0.00320000
C        0.38920000       0.00070000       1.44400000
C       -0.47690000      -0.97960000       2.25040000
O       -0.25490000      -1.35720000       3.36920000
C       -1.65820000      -1.40880000       1.37000000
C       -1.62240000      -0.46130000       0.17400000
O       -2.31960000       0.71790000       0.53500000
H        0.87510000       1.37160000      -0.74070000
H        0.37570000      -0.99020000      -0.49150000
H        1.45380000      -0.19620000       1.58900000
H        0.17070000       1.01060000       1.81090000
H       -1.49300000      -2.44940000       1.06450000
H       -2.60440000      -1.36710000       1.91330000
H       -2.04280000      -0.90260000      -0.74010000
H       -1.97130000       1.41600000      -0.03510000
