16
Properties=species:S:1:pos:R:3 gdb_19066=T pbc="F F F"
O       -0.05440000       1.34130000      -0.05960000
C        0.02220000      -0.05540000      -0.02100000
C       -0.41930000      -0.73310000       1.26150000
C       -1.31520000      -0.73050000       0.02520000
C       -1.32470000      -2.25130000      -0.23450000
C       -1.61330000      -2.83790000       1.17410000
C       -0.18480000      -2.25520000       1.35170000
O        0.07470000      -2.62890000      -0.03900000
H        0.75230000       1.68980000       0.33360000
H        0.82130000      -0.50170000      -0.60600000
H       -0.63340000      -0.13950000       2.14140000
H       -2.21800000      -0.13820000      -0.05040000
H       -1.76440000      -2.63670000      -1.15390000
H       -2.43320000      -2.42070000       1.76460000
H       -1.61850000      -3.92930000       1.17400000
H        0.54520000      -2.64740000       2.05940000
