15
Properties=species:S:1:pos:R:3 gdb_15203=T pbc="F F F"
C       -0.10920000       1.54580000       0.05940000
C        0.02900000       0.04570000      -0.03180000
C        0.70580000      -0.61950000      -1.21450000
C        1.27250000       0.14890000      -2.28140000
C        1.74000000       0.78400000      -3.18860000
C        1.36820000      -0.64160000       0.17720000
C        2.55220000       0.13030000       0.42340000
N        3.50770000       0.74530000       0.64060000
H        0.75840000       2.05500000      -0.36490000
H       -0.99720000       1.87810000      -0.48700000
H       -0.21290000       1.85900000       1.10280000
H       -0.80870000      -0.51600000       0.37140000
H        0.30020000      -1.58130000      -1.51460000
H        2.16500000       1.34560000      -3.98360000
H        1.36030000      -1.60110000       0.68320000
