19
Properties=species:S:1:pos:R:3 gdb_73158=T pbc="F F F"
O        0.20530000       1.44500000      -0.09320000
C        0.04600000       0.07760000       0.05740000
C       -1.41600000      -0.42160000       0.05390000
C       -1.14370000      -1.28710000       1.32220000
C        0.33200000      -0.81700000       1.35400000
C        1.29850000      -1.69980000       0.50810000
C        1.05940000      -0.78780000      -0.69770000
C        1.29180000      -0.90840000      -2.13580000
O        2.15070000      -0.09640000      -1.31110000
H        1.08740000       1.57710000      -0.47080000
H       -2.10080000       0.40830000       0.24180000
H       -1.74430000      -0.94450000      -0.84930000
H       -1.72370000      -0.96580000       2.19000000
H       -1.28150000      -2.36530000       1.20210000
H        0.72460000      -0.41860000       2.28890000
H        2.34110000      -1.66650000       0.83400000
H        0.99920000      -2.74480000       0.38740000
H        1.76190000      -1.80310000      -2.54070000
H        0.66170000      -0.35620000      -2.83190000
