15
Properties=species:S:1:pos:R:3 gdb_19243=T pbc="F F F"
O       -0.14330000       1.43250000       0.14560000
C       -0.03700000       0.04500000       0.00720000
C       -1.37770000      -0.67470000       0.04930000
C       -2.23570000      -0.23340000      -1.10250000
C       -1.15610000      -1.24160000      -1.35700000
C        0.21530000      -0.55570000      -1.45050000
C        0.44490000       0.40060000      -2.52180000
N        0.64110000       1.18890000      -3.34510000
H        0.71460000       1.83450000      -0.03020000
H        0.69250000      -0.38260000       0.70630000
H       -1.78550000      -1.16320000       0.92430000
H       -3.24300000      -0.63560000      -1.10060000
H       -2.15300000       0.77730000      -1.48850000
H       -1.35500000      -2.23810000      -1.72830000
H        1.03980000      -1.27250000      -1.42850000
