18
Properties=species:S:1:pos:R:3 gdb_49089=T pbc="F F F"
O       -0.52980000       0.70390000       0.69980000
C        0.20810000       1.00740000      -0.20590000
C        1.37700000       1.91080000      -0.05990000
C        1.82500000       2.38670000       1.31520000
C        2.46290000       3.77540000       1.04650000
C        2.79690000       3.72160000      -0.44910000
C        3.62770000       2.45190000      -0.77030000
N        2.39460000       1.67810000      -1.15480000
C        1.62360000       2.95040000      -1.10400000
H        0.06150000       0.62720000      -1.23970000
H        0.96050000       2.43040000       1.98080000
H        2.53470000       1.68430000       1.76430000
H        1.74460000       4.57770000       1.24800000
H        3.34960000       3.95970000       1.66140000
H        3.12340000       4.66050000      -0.89550000
H        4.24820000       2.55110000      -1.66340000
H        4.22260000       2.00850000       0.03520000
H        0.93140000       3.25940000      -1.87930000
