22
Properties=species:S:1:pos:R:3 gdb_55854=T pbc="F F F"
C       -0.14970000       1.38630000      -0.00020000
C       -0.37730000      -0.07320000      -0.36810000
O        0.08860000      -0.57850000      -1.37180000
N       -1.13980000      -0.78160000       0.52470000
C       -1.28700000      -2.20280000       0.42030000
C       -2.55130000      -2.83880000       0.94300000
C       -2.27890000      -2.81370000      -0.54660000
C       -3.11790000      -1.89920000      -1.41520000
C       -1.85370000      -4.10430000      -1.21820000
H       -0.08480000       1.97200000      -0.91810000
H       -0.93650000       1.79510000       0.64010000
H        0.80620000       1.48160000       0.52600000
H       -1.38980000      -0.34240000       1.39660000
H       -0.36020000      -2.75790000       0.55270000
H       -2.46330000      -3.77450000       1.48510000
H       -3.32200000      -2.17420000       1.32170000
H       -3.39040000      -0.98100000      -0.88930000
H       -2.56650000      -1.61650000      -2.31770000
H       -4.04290000      -2.40090000      -1.72130000
H       -2.72480000      -4.69780000      -1.51920000
H       -1.26100000      -3.89280000      -2.11480000
H       -1.24440000      -4.72320000      -0.55180000
