15
Properties=species:S:1:pos:R:3 gdb_132423=T pbc="F F F"
C       -0.02470000       1.51960000       0.01390000
C       -0.00460000       0.02020000      -0.03670000
C       -0.04160000      -0.70640000      -1.19200000
C       -0.02170000      -2.13190000      -1.22270000
C        0.03720000      -2.76080000      -0.02610000
F        0.06240000      -4.07750000       0.11560000
N        0.07520000      -2.07490000       1.14010000
C        0.05870000      -0.66460000       1.24820000
O        0.09650000      -0.14290000       2.34980000
H        0.86640000       1.90450000       0.52160000
H       -0.07240000       1.95020000      -0.98940000
H       -0.88220000       1.87860000       0.59340000
H       -0.08870000      -0.18010000      -2.14110000
H       -0.05130000      -2.69890000      -2.14090000
H        0.11880000      -2.58340000       2.01340000
