18
Properties=species:S:1:pos:R:3 gdb_126748=T pbc="F F F"
C        0.44740000       1.50180000       0.19750000
C       -0.09880000       0.10710000      -0.10410000
N        0.50750000      -0.48160000      -1.28840000
C        1.33230000      -1.53950000      -1.39630000
N        1.66510000      -1.73950000      -2.65860000
C        0.99230000      -0.74630000      -3.30790000
C        1.10750000      -0.59260000      -4.79650000
O        1.27140000      -1.84330000      -5.43060000
N        0.27490000       0.03950000      -2.52110000
H        1.52260000       1.46710000       0.39580000
H        0.27250000       2.16710000      -0.65080000
H       -0.05410000       1.91630000       1.07680000
H        0.09250000      -0.58040000       0.72490000
H       -1.18020000       0.14360000      -0.26540000
H        1.65170000      -2.12390000      -0.54620000
H        0.20270000      -0.11980000      -5.19030000
H        1.95130000       0.08180000      -5.02300000
H        1.79170000      -2.38580000      -4.82420000
