20
Properties=species:S:1:pos:R:3 gdb_54849=T pbc="F F F"
C        0.18940000       1.34120000      -0.20610000
C        0.10380000      -0.17510000      -0.18570000
O        0.43890000      -0.84780000       0.76710000
N       -0.46700000      -0.73130000      -1.31920000
C       -0.12540000      -0.64910000      -2.72480000
C        1.31460000      -0.33530000      -3.10230000
C        2.17620000      -1.25140000      -2.19810000
C        1.28830000      -2.47620000      -1.86780000
C       -0.13990000      -1.96740000      -1.98170000
H        1.11060000       1.65180000      -0.71220000
H       -0.65310000       1.78580000      -0.74100000
H        0.22430000       1.70910000       0.81990000
H       -0.92890000      -0.35280000      -3.39430000
H        1.44570000      -0.58970000      -4.16120000
H        1.57100000       0.72390000      -2.99810000
H        3.11160000      -1.53920000      -2.68340000
H        2.44870000      -0.73230000      -1.27590000
H        1.42740000      -3.27680000      -2.60360000
H        1.50510000      -2.88610000      -0.87880000
H       -0.95470000      -2.67800000      -2.09040000
