21
Properties=species:S:1:pos:R:3 gdb_109653=T pbc="F F F"
C       -0.19410000       1.50400000      -0.23280000
C       -0.10280000       0.03750000       0.21100000
C       -1.42140000      -0.68740000       0.04140000
C       -1.76060000      -1.42910000      -1.20930000
O       -0.81120000      -1.59150000      -2.21820000
C       -1.50310000      -2.22340000       0.07980000
C       -0.25920000      -3.08060000       0.20210000
C       -2.74150000      -2.75870000       0.70580000
O       -3.79860000      -2.17170000       0.75150000
H        0.76050000       2.01930000      -0.08990000
H       -0.46180000       1.58510000      -1.29250000
H       -0.95660000       2.04420000       0.33800000
H        0.68060000      -0.46990000      -0.35960000
H        0.20230000      -0.00450000       1.26360000
H       -2.27580000      -0.21710000       0.52360000
H       -2.79720000      -1.41690000      -1.54280000
H       -0.68750000      -0.74120000      -2.65300000
H        0.43640000      -2.88370000      -0.61430000
H        0.26120000      -2.91320000       1.15110000
H       -0.52720000      -4.14190000       0.15450000
H       -2.63960000      -3.77990000       1.13800000
