19
Properties=species:S:1:pos:R:3 gdb_53323=T pbc="F F F"
C        0.03520000       1.54490000      -0.03650000
C        0.01770000       0.09000000       0.03820000
C        0.02270000      -1.11570000       0.09190000
C        0.01000000      -2.57120000       0.15720000
C        0.19030000      -3.29040000       1.54850000
C       -1.12610000      -4.03850000       1.31970000
C       -2.24120000      -3.04740000       1.15790000
O       -2.29340000      -1.85420000       1.88290000
C       -1.34430000      -3.29030000      -0.01620000
H        0.91370000       1.90160000      -0.58530000
H       -0.85360000       1.92910000      -0.54900000
H        0.06280000       1.99500000       0.96190000
H        0.73900000      -2.97380000      -0.55220000
H        1.07340000      -3.93050000       1.56310000
H        0.19850000      -2.63180000       2.41940000
H       -1.30490000      -5.08010000       1.55710000
H       -3.22290000      -3.50670000       1.05230000
H       -1.89570000      -1.15460000       1.35020000
H       -1.71990000      -3.64380000      -0.96970000
