15
Properties=species:S:1:pos:R:3 gdb_28557=T pbc="F F F"
N        0.17240000       1.40940000       0.02360000
C       -0.02990000       0.01430000      -0.01240000
C       -1.11900000      -0.79810000      -0.03840000
C       -0.69000000      -2.17400000      -0.07030000
C        0.67140000      -2.17250000      -0.06300000
O        1.54360000      -3.18440000      -0.08360000
N        1.11110000      -0.83780000      -0.02750000
C        2.42380000      -0.44600000      -0.01040000
O        3.35950000      -1.22980000      -0.02600000
H       -0.21100000       1.87930000      -0.78870000
H       -0.22270000       1.83850000       0.85280000
H       -2.14400000      -0.45810000      -0.03540000
H       -1.31400000      -3.05190000      -0.09550000
H        2.44110000      -2.79100000      -0.06870000
H        2.53980000       0.64500000       0.01670000
