20
Properties=species:S:1:pos:R:3 gdb_106422=T pbc="F F F"
O       -0.08210000       1.40820000       0.04450000
C       -0.03310000      -0.00930000      -0.02740000
C       -1.44150000      -0.52730000      -0.00600000
C       -2.52850000      -0.30080000       1.09860000
C       -3.22310000      -1.19160000       0.02240000
C       -2.57280000      -0.26740000      -1.05180000
C       -1.91400000      -1.99550000      -0.01950000
C       -1.45140000      -3.20770000      -0.70560000
N       -1.53690000      -3.13480000       0.78830000
H        0.82010000       1.74070000       0.03170000
H        0.46800000      -0.34740000      -0.94990000
H        0.52720000      -0.43280000       0.82390000
H       -2.34410000      -0.76380000       2.07080000
H       -2.89860000       0.72220000       1.19450000
H       -4.24080000      -1.57930000       0.03830000
H       -2.94710000       0.75730000      -1.09400000
H       -2.42640000      -0.69170000      -2.04870000
H       -2.15700000      -3.89730000      -1.16160000
H       -0.46490000      -3.20760000      -1.16380000
H       -0.60530000      -3.01640000       1.18100000
