17
Properties=species:S:1:pos:R:3 gdb_35724=T pbc="F F F"
N       -0.39700000      -1.06600000      -0.57890000
C       -0.21330000       0.01650000      -0.21810000
C        0.01540000       1.40390000       0.19230000
N        0.32840000       1.60720000       1.61790000
C        1.38880000       2.58790000       1.29050000
C        1.38440000       2.07930000      -0.17640000
C        2.50730000       1.14840000      -0.56510000
C        3.91360000       1.48570000      -0.31500000
O        3.23880000       0.50680000       0.47670000
H       -0.82510000       2.00400000      -0.18500000
H       -0.44080000       1.94210000       2.18620000
H        1.08630000       3.64000000       1.36930000
H        2.31170000       2.42760000       1.85320000
H        1.28030000       2.84870000      -0.94490000
H        2.28480000       0.49940000      -1.41330000
H        4.68680000       1.10250000      -0.97870000
H        4.16310000       2.41170000       0.20230000
