17
Properties=species:S:1:pos:R:3 gdb_54015=T pbc="F F F"
C        0.27890000       1.64840000      -0.02300000
C        0.13760000       0.15660000       0.15820000
O        0.28490000      -0.36630000       1.23860000
N       -0.11630000      -0.66450000      -0.99200000
C       -0.00180000      -2.05250000      -0.77170000
N       -0.40560000      -2.92200000      -1.60130000
C       -0.53060000      -0.10180000      -2.24560000
C       -0.19590000      -0.85510000      -3.50940000
O       -1.09400000       0.96520000      -2.26790000
H        0.85530000       1.91020000      -0.91200000
H       -0.70300000       2.11020000      -0.13720000
H        0.76600000       2.02650000       0.87620000
H        0.44680000      -2.24960000       0.20040000
H       -0.21020000      -3.85430000      -1.24040000
H       -0.92790000      -1.64690000      -3.67560000
H       -0.23390000      -0.13450000      -4.32760000
H        0.78140000      -1.33780000      -3.45570000
