15
Properties=species:S:1:pos:R:3 gdb_56950=T pbc="F F F"
O       -0.45000000       1.15870000       0.08740000
C        0.09590000      -0.12600000      -0.14080000
C        0.96230000      -0.13040000      -1.33890000
N        1.66880000      -0.09280000      -2.25220000
C        0.86210000      -0.66120000       1.05980000
C        0.10680000      -1.08490000       2.27960000
C        0.80080000      -2.13900000       1.43120000
C        0.00390000      -3.04850000       0.65500000
N       -0.64790000      -3.77240000       0.03080000
H        0.27270000       1.79180000       0.16950000
H       -0.76240000      -0.77560000      -0.34270000
H        1.83390000      -0.20070000       1.21120000
H        0.53090000      -0.87560000       3.25420000
H       -0.97570000      -1.05330000       2.23640000
H        1.71400000      -2.57450000       1.82120000
