23
Properties=species:S:1:pos:R:3 gdb_108821=T pbc="F F F"
C        0.19120000       1.53950000      -0.16280000
C       -0.05400000       0.03340000       0.03920000
C        0.65210000      -0.52840000       1.23760000
C        0.09720000      -1.05090000       2.33640000
C        1.12530000      -1.47120000       3.36730000
C        0.79650000      -2.74110000       4.15540000
C        2.41950000      -1.54890000       2.50180000
O        2.64090000      -2.85050000       1.97460000
C        2.16620000      -0.52490000       1.37150000
H        1.25560000       1.75580000      -0.29790000
H       -0.33790000       1.90360000      -1.04870000
H       -0.15940000       2.11160000       0.70200000
H       -1.13010000      -0.15350000       0.12950000
H        0.28200000      -0.49790000      -0.86290000
H       -0.97180000      -1.14120000       2.50560000
H        1.25560000      -0.64980000       4.09050000
H        0.67250000      -3.60310000       3.49480000
H        1.59540000      -2.98220000       4.86370000
H       -0.13030000      -2.61160000       4.72400000
H        3.31820000      -1.32660000       3.08330000
H        1.87660000      -3.06940000       1.42830000
H        2.69610000      -0.81410000       0.45640000
H        2.53190000       0.47350000       1.64970000
