13
Properties=species:S:1:pos:R:3 gdb_21706=T pbc="F F F"
N       -0.03280000       1.36120000       0.00860000
C        0.01970000       0.02340000       0.00120000
N        1.11260000      -0.68150000      -0.01080000
H        2.02920000      -0.24630000      -0.01550000
C        1.15630000      -2.09250000      -0.01860000
N        2.33110000      -2.72890000      -0.03080000
C        1.86480000      -3.99870000      -0.03370000
N        0.52740000      -4.10730000      -0.02480000
N        0.05410000      -2.82900000      -0.01410000
H        0.79340000       1.93680000       0.00540000
H       -0.92370000       1.82470000       0.01790000
H       -0.90580000      -0.54400000       0.00520000
H        2.51400000      -4.86340000      -0.04320000
