17
Properties=species:S:1:pos:R:3 gdb_29556=T pbc="F F F"
C       -0.01840000       1.50990000       0.00780000
C       -0.00530000       0.01070000      -0.01550000
C       -0.03130000      -0.69470000      -1.16160000
O       -0.02080000      -2.04590000      -1.22610000
C        0.01850000      -2.73830000      -0.06450000
C        0.04800000      -2.17170000       1.15620000
C        0.09130000      -2.98010000       2.41830000
C        0.03770000      -0.70560000       1.26800000
O        0.06310000      -0.12490000       2.34840000
H        0.86910000       1.89050000       0.52350000
H       -0.05180000       1.93220000      -0.99990000
H       -0.88100000       1.87430000       0.57480000
H       -0.06350000      -0.25960000      -2.15340000
H        0.02310000      -3.80590000      -0.24950000
H        0.09510000      -4.05390000       2.21380000
H        0.98150000      -2.72630000       3.00260000
H       -0.76860000      -2.74200000       3.05260000
