18
Properties=species:S:1:pos:R:3 gdb_43665=T pbc="F F F"
N        0.09120000       0.76980000       1.26310000
C       -0.01180000      -0.08800000       0.35640000
C       -1.16640000      -0.72000000      -0.39220000
C       -0.05720000      -1.51390000      -1.11550000
C        0.13760000      -1.28560000      -2.60270000
C        1.45230000      -1.84050000      -3.10220000
C        1.56070000      -3.18490000      -3.68460000
O        1.57160000      -2.02070000      -4.51280000
O        0.95810000      -0.80850000      -0.31480000
H        1.06820000       0.93120000       1.51360000
H       -1.85220000      -1.29990000       0.22670000
H       -1.73470000      -0.02980000      -1.01900000
H       -0.02760000      -2.57970000      -0.86810000
H       -0.68650000      -1.75890000      -3.14950000
H        0.09210000      -0.20930000      -2.80990000
H        2.33840000      -1.41870000      -2.62790000
H        2.50240000      -3.72840000      -3.62670000
H        0.67070000      -3.80830000      -3.76910000
