12
Properties=species:S:1:pos:R:3 gdb_24894=T pbc="F F F"
O       -0.09360000      -0.02850000       0.00450000
C        0.01190000       1.16280000       0.00950000
O       -1.18560000       1.92160000       0.02970000
C       -1.18020000       3.26690000       0.03680000
C       -0.04390000       4.00430000       0.02540000
C        1.20300000       3.30740000       0.00480000
C        1.23030000       1.95330000      -0.00280000
C       -2.48680000       3.84680000       0.05750000
N       -3.53360000       4.33920000       0.07430000
H       -0.10070000       5.08340000       0.03190000
H        2.12740000       3.87520000      -0.00460000
H        2.15260000       1.38700000      -0.01830000
