15
Properties=species:S:1:pos:R:3 gdb_78741=T pbc="F F F"
O       -0.00010000       1.30620000       0.12010000
C        0.01060000      -0.09510000      -0.02080000
C       -1.42190000      -0.59960000      -0.14630000
C       -1.39570000      -0.45930000      -1.64830000
C        0.16550000      -0.57980000      -1.49750000
O        0.09460000      -2.02550000      -1.38000000
C       -1.28070000      -1.84800000      -1.07310000
C       -2.25080000      -2.94640000      -1.06980000
O       -1.98380000      -4.10680000      -1.25470000
H        0.91330000       1.61120000       0.11680000
H        0.66990000      -0.58670000       0.70620000
H       -2.24810000      -0.47060000       0.54030000
H       -2.07370000      -0.03120000      -2.37260000
H        0.94290000      -0.21870000      -2.16770000
H       -3.29190000      -2.59820000      -0.87490000
