18
Properties=species:S:1:pos:R:3 gdb_93182=T pbc="F F F"
C       -0.20380000       1.56220000      -0.07750000
C        0.01500000       0.04330000       0.00460000
C        0.77470000      -0.52110000      -1.19960000
N        2.17800000      -0.14170000      -1.12590000
C        2.89620000      -0.08390000       0.03080000
O        4.10150000       0.07630000       0.05860000
C        2.09460000      -0.19810000       1.32690000
N        2.66680000      -0.16950000       2.46420000
N        0.73200000      -0.37850000       1.20260000
H        0.74690000       2.09480000      -0.16940000
H       -0.82860000       1.81910000      -0.93950000
H       -0.70770000       1.92200000       0.82440000
H       -0.96290000      -0.45040000       0.02580000
H        0.66310000      -1.61380000      -1.21780000
H        0.35290000      -0.12380000      -2.12710000
H        2.73300000      -0.13540000      -1.96980000
H        3.67270000      -0.08460000       2.30430000
H        0.24310000      -0.29080000       2.08370000
