18
Properties=species:S:1:pos:R:3 gdb_54219=T pbc="F F F"
C       -0.17790000       1.50920000      -0.06770000
C       -0.00980000       0.00980000       0.04960000
O        0.09050000      -0.55650000       1.11270000
C        0.01710000      -0.77860000      -1.27090000
C        1.16000000      -0.33290000      -2.18920000
C       -0.19740000      -2.29730000      -1.10610000
O       -1.50110000      -2.19020000      -1.77620000
C       -1.35080000      -0.83890000      -1.94670000
N       -2.09300000       0.02270000      -2.47570000
H        0.76070000       1.96290000      -0.40590000
H       -0.94540000       1.75060000      -0.80950000
H       -0.43350000       1.92180000       0.90890000
H        2.12730000      -0.43720000      -1.68730000
H        1.17760000      -0.94080000      -3.09820000
H        1.03250000       0.70940000      -2.49030000
H        0.47580000      -2.94180000      -1.67530000
H       -0.30800000      -2.63980000      -0.07770000
H       -2.95620000      -0.38640000      -2.83660000
