20
Properties=species:S:1:pos:R:3 gdb_120691=T pbc="F F F"
C        0.34510000       1.28150000      -0.83520000
C        0.04880000       0.31460000       0.29730000
O        0.84330000       0.09880000       1.18410000
C       -1.31000000      -0.32980000       0.24610000
N       -1.49180000      -1.60660000       0.96070000
C       -2.19910000      -0.43290000       1.46090000
C       -1.81290000       0.07120000       2.83080000
C       -2.46070000      -0.76380000       3.94100000
O       -2.14700000      -0.28050000       5.23650000
H        1.31490000       1.75320000      -0.67560000
H        0.34840000       0.74980000      -1.79430000
H       -0.43600000       2.04790000      -0.90080000
H       -1.83240000      -0.20210000      -0.70020000
H       -2.11010000      -2.20930000       0.42420000
H       -3.26380000      -0.36150000       1.23290000
H       -0.72450000       0.02870000       2.92820000
H       -2.12280000       1.11700000       2.94460000
H       -3.55370000      -0.71660000       3.86680000
H       -2.16980000      -1.81830000       3.81990000
H       -1.19430000      -0.35790000       5.35180000
