16
Properties=species:S:1:pos:R:3 gdb_45116=T pbc="F F F"
N       -0.04360000       1.14920000      -0.70410000
C       -0.04150000       0.07210000      -0.04610000
O        0.98640000      -0.28490000       0.79020000
C        1.18650000      -1.66710000       1.01190000
C        0.95920000      -2.17320000       2.40200000
C       -0.03750000      -2.49020000       1.30610000
C       -1.35520000      -1.73150000       1.19910000
C       -1.28210000      -0.82200000      -0.01830000
O       -2.11440000      -0.77760000      -0.88490000
H        0.84060000       1.64590000      -0.56680000
H        1.99470000      -2.07120000       0.41000000
H        1.59900000      -2.96920000       2.76520000
H        0.66720000      -1.44070000       3.14700000
H       -0.04860000      -3.50180000       0.91550000
H       -2.21370000      -2.39670000       1.09420000
H       -1.51950000      -1.10700000       2.08580000
