19
Properties=species:S:1:pos:R:3 gdb_37449=T pbc="F F F"
C       -0.03110000       1.55480000       0.07260000
N        1.34720000       2.11310000       0.04450000
C        2.33480000       1.02940000      -0.00360000
C        2.06990000       0.12280000       1.21040000
O        0.76720000      -0.46940000       1.11490000
C        0.03520000       0.02820000      -0.01790000
C        0.78880000      -0.42090000      -1.26680000
N        1.18070000       0.62660000      -2.23860000
C        2.15940000       0.14100000      -1.24590000
H       -0.52660000       1.82170000       1.01410000
H       -0.62410000       1.95680000      -0.75360000
H        1.44440000       2.65050000      -0.80940000
H        3.34000000       1.45670000       0.06060000
H        2.81540000      -0.68130000       1.26620000
H        2.12770000       0.71800000       2.13040000
H       -0.95830000      -0.41900000       0.06150000
H        0.61020000      -1.42830000      -1.62930000
H        1.36920000       0.18660000      -3.13580000
H        3.00480000      -0.45170000      -1.58520000
