19
Properties=species:S:1:pos:R:3 gdb_70462=T pbc="F F F"
C       -0.16340000       1.51210000       0.18780000
C        0.12860000       0.05480000       0.03760000
O       -0.74760000      -0.88500000       0.68180000
C        0.66080000      -0.96720000       0.95770000
C        1.29480000      -1.76540000      -0.18560000
C        0.73250000      -0.68630000      -1.17980000
C       -0.26040000      -1.14450000      -2.25590000
C        0.34930000      -2.01860000      -3.25060000
C        0.88070000      -2.73700000      -4.05510000
H        0.70790000       2.11390000      -0.09030000
H       -0.99840000       1.81320000      -0.45530000
H       -0.43410000       1.74140000       1.22190000
H        0.96060000      -0.89350000       1.99730000
H        2.38640000      -1.78480000      -0.15800000
H        0.91500000      -2.78270000      -0.30730000
H        1.54650000      -0.11350000      -1.63300000
H       -1.08990000      -1.66190000      -1.76000000
H       -0.69200000      -0.26710000      -2.75610000
H        1.33500000      -3.37420000      -4.77240000
