21
Properties=species:S:1:pos:R:3 gdb_90400=T pbc="F F F"
C       -0.04270000       1.53670000      -0.04370000
C        0.06090000       0.02220000       0.05140000
C       -1.18090000      -0.68070000      -0.48280000
C        1.34590000      -0.74550000      -0.22200000
C        2.57010000       0.01440000       0.28650000
C        1.97030000      -0.04360000       1.73770000
O        1.77800000       1.13690000       2.48610000
C        0.71000000      -0.70250000       1.19570000
O       -0.02580000      -1.62770000       1.91500000
H        0.78630000       2.05160000       0.44040000
H       -0.09040000       1.85050000      -1.09360000
H       -0.96180000       1.87910000       0.44480000
H       -1.36730000      -0.37620000      -1.51880000
H       -1.08340000      -1.76770000      -0.45290000
H       -2.06210000      -0.41330000       0.10980000
H        1.36650000      -1.55880000      -0.93780000
H        3.50880000      -0.53720000       0.19330000
H        2.71180000       1.02230000      -0.11350000
H        2.52970000      -0.78620000       2.32970000
H        2.63260000       1.42520000       2.82250000
H        0.57670000      -2.29880000       2.25440000
