21
Properties=species:S:1:pos:R:3 gdb_121743=T pbc="F F F"
C       -0.09480000       1.40730000      -0.12780000
C        0.02760000      -0.11160000       0.02230000
C        0.76900000      -0.49700000       1.29160000
O        0.83410000      -1.93530000       1.34560000
C        1.46330000      -2.45690000       2.41560000
O        1.95460000      -1.79150000       3.29500000
C        1.46600000      -3.96760000       2.35870000
C        2.17220000      -4.58990000       3.55490000
O        2.10770000      -5.99810000       3.38710000
H        0.88990000       1.88510000      -0.17080000
H       -0.63030000       1.66690000      -1.04520000
H       -0.64110000       1.84900000       0.71260000
H       -0.96690000      -0.57210000       0.03830000
H        0.55490000      -0.53630000      -0.83970000
H        1.78690000      -0.09240000       1.30730000
H        0.25920000      -0.12860000       2.18860000
H        0.43150000      -4.32390000       2.30130000
H        1.94400000      -4.28840000       1.42650000
H        3.21020000      -4.23070000       3.59850000
H        1.68050000      -4.26600000       4.48310000
H        2.54990000      -6.40750000       4.13620000
