20
Properties=species:S:1:pos:R:3 gdb_71300=T pbc="F F F"
C        0.00180000       1.46770000       0.07930000
C        0.01440000      -0.04930000      -0.00530000
C        0.22900000      -0.66690000      -1.41830000
N       -1.08220000      -1.40880000      -1.37490000
C       -1.15030000      -2.18910000      -0.11540000
C        0.00340000      -2.85030000       0.61370000
O        1.16480000      -2.05380000       0.76900000
C        0.91290000      -0.68900000       1.05760000
C       -1.36570000      -0.73500000      -0.04510000
H        0.99630000       1.88180000      -0.12110000
H       -0.69510000       1.89590000      -0.64850000
H       -0.30690000       1.80800000       1.07500000
H        0.17050000       0.08010000      -2.21390000
H        1.10850000      -1.29640000      -1.56770000
H       -2.04540000      -2.80820000      -0.11100000
H       -0.38220000      -3.16260000       1.60090000
H        0.33150000      -3.75430000       0.08900000
H        1.89890000      -0.21250000       1.07880000
H        0.45430000      -0.57030000       2.05490000
H       -2.31770000      -0.26090000       0.17600000
