15
Properties=species:S:1:pos:R:3 gdb_76295=T pbc="F F F"
O       -0.24210000       1.42960000      -0.34100000
C       -0.02460000       0.06900000       0.02950000
C       -1.42020000      -0.57610000       0.03370000
O       -2.41070000       0.12260000       0.71690000
C       -1.67830000      -0.79190000      -1.47590000
O       -2.72680000      -0.62330000      -2.03390000
C       -0.34070000      -1.16230000      -2.11560000
C        0.70730000      -0.60160000      -1.15300000
O        1.90090000      -0.61000000      -1.30080000
H        0.61470000       1.86600000      -0.40690000
H        0.52360000      -0.02080000       0.97290000
H       -1.34090000      -1.56890000       0.49920000
H       -2.46860000       0.99840000       0.31640000
H       -0.22950000      -2.25360000      -2.16120000
H       -0.23750000      -0.78560000      -3.13590000
