14
Properties=species:S:1:pos:R:3 gdb_24814=T pbc="F F F"
N       -0.06390000       1.31900000      -0.22470000
C        0.01280000       0.05130000      -0.04030000
C        1.22970000      -0.73440000       0.16460000
C        1.19480000      -2.05980000       0.34850000
O        0.04640000      -2.78470000       0.36160000
C       -1.11500000      -2.11460000       0.17720000
C       -1.21090000      -0.77980000      -0.01810000
C       -2.49090000      -0.19240000      -0.20000000
C       -3.58270000       0.29000000      -0.35250000
H        0.87030000       1.73420000      -0.21080000
H        2.18980000      -0.23030000       0.16810000
H        2.05820000      -2.69340000       0.50460000
H       -1.96700000      -2.78020000       0.20490000
H       -4.53720000       0.73430000      -0.48870000
