21
Properties=species:S:1:pos:R:3 gdb_113192=T pbc="F F F"
C       -0.11960000       1.32890000       0.18160000
C       -0.11780000      -0.18370000      -0.04360000
O       -1.45420000      -0.67160000      -0.23210000
C        0.73390000      -0.61260000      -1.22500000
O        0.28830000      -0.04300000      -2.43790000
C        2.19760000      -0.93600000      -1.08010000
C        1.18960000      -2.03760000      -1.36280000
C        0.83100000      -3.08510000      -0.32780000
O       -0.52450000      -3.47480000      -0.39750000
H        0.89010000       1.69340000       0.39830000
H       -0.49740000       1.85550000      -0.70140000
H       -0.76950000       1.58070000       1.02300000
H        0.24410000      -0.67640000       0.86350000
H       -1.69270000      -0.44010000      -1.14000000
H        0.62760000       0.85740000      -2.49170000
H        2.85890000      -0.63640000      -1.88580000
H        2.63940000      -0.88890000      -0.08890000
H        1.16610000      -2.39050000      -2.38950000
H        1.42490000      -3.98940000      -0.50220000
H        1.10240000      -2.72560000       0.67950000
H       -1.05460000      -2.66710000      -0.30810000
