15
Properties=species:S:1:pos:R:3 gdb_49895=T pbc="F F F"
O       -0.13560000      -0.03050000       0.26020000
C       -0.08240000       1.14550000       0.01820000
C        1.22180000       1.94370000      -0.04660000
N        2.36470000       1.05750000       0.06350000
C        3.42390000       0.95230000      -0.80310000
O        4.29000000       0.10750000      -0.70580000
N        3.44460000       1.91400000      -1.80980000
C        2.36370000       2.73640000      -2.08210000
C        1.29130000       2.78770000      -1.29080000
H       -0.99810000       1.75670000      -0.14250000
H        1.16660000       2.61210000       0.83850000
H        2.23780000       0.23930000       0.64150000
H        4.20150000       1.81540000      -2.46500000
H        2.45680000       3.34390000      -2.97450000
H        0.46590000       3.45020000      -1.51380000
