18
Properties=species:S:1:pos:R:3 gdb_90014=T pbc="F F F"
C        0.77130000       1.43930000      -0.00520000
C       -0.10330000       0.19380000      -0.06910000
C        0.21580000      -0.76980000      -1.24590000
C        0.92310000      -1.66000000      -0.19580000
C        0.95950000      -3.19900000      -0.22190000
O        2.42220000      -3.16870000      -0.35160000
C        2.45510000      -1.80160000      -0.26470000
O        3.40850000      -1.08810000      -0.23740000
N        0.27660000      -0.90100000       0.87300000
H        1.82850000       1.18030000      -0.12520000
H        0.49360000       2.14670000      -0.79430000
H        0.64740000       1.95010000       0.95640000
H       -1.15890000       0.46850000       0.03150000
H       -0.66460000      -1.25030000      -1.67690000
H        0.84550000      -0.37140000      -2.04240000
H        0.66080000      -3.68200000       0.71050000
H        0.50480000      -3.69080000      -1.08450000
H        0.88250000      -0.62510000       1.64050000
