21
Properties=species:S:1:pos:R:3 gdb_52323=T pbc="F F F"
O       -0.38260000       0.17140000      -0.30060000
C       -0.01640000       1.24200000      -0.70650000
C        1.35050000       1.83500000      -0.40900000
O        1.45350000       3.05520000      -1.09030000
C        2.64840000       3.79340000      -0.82830000
C        3.87000000       3.21770000      -1.59850000
C        4.07800000       4.13950000      -2.83290000
C        2.81660000       5.02210000      -2.89540000
C        2.44070000       5.19370000      -1.41660000
H       -0.65650000       1.89750000      -1.33740000
H        1.44490000       1.96490000       0.68370000
H        2.11960000       1.10430000      -0.70830000
H        2.81520000       3.81280000       0.25830000
H        4.75970000       3.19040000      -0.96290000
H        3.66430000       2.18600000      -1.89700000
H        4.96210000       4.76910000      -2.68320000
H        4.24450000       3.57430000      -3.75350000
H        2.98450000       5.97030000      -3.41300000
H        2.00880000       4.49670000      -3.41580000
H        1.42150000       5.54820000      -1.24660000
H        3.13160000       5.89260000      -0.92970000
