21
Properties=species:S:1:pos:R:3 gdb_78615=T pbc="F F F"
C       -0.83570000       1.42830000      -0.44890000
N       -0.53160000       0.03340000      -0.15410000
C       -1.21260000      -0.59360000       1.01340000
C       -0.06050000      -1.61380000       1.18990000
C        0.59130000      -0.24850000       0.78400000
C       -0.25270000      -0.02090000       2.13030000
C       -0.37520000       1.14060000       3.07640000
N       -0.01210000      -1.40570000       2.65860000
C        1.29030000      -1.62740000       3.27930000
H       -0.10110000       1.80780000      -1.16730000
H       -1.82100000       1.48470000      -0.92420000
H       -0.83940000       2.10370000       0.42050000
H       -2.28640000      -0.77650000       1.07180000
H        0.05290000      -2.58140000       0.70150000
H        1.62670000      -0.00170000       0.54280000
H       -0.61750000       2.07080000       2.55880000
H       -1.16200000       0.93790000       3.81110000
H        0.56240000       1.29510000       3.62240000
H        1.28720000      -1.21350000       4.29300000
H        1.46950000      -2.70440000       3.36400000
H        2.13920000      -1.18320000       2.73040000
